
---------- Begin Simulation Statistics ----------
simSeconds                                   1.510075                       # Number of seconds simulated (Second)
simTicks                                 1510074873000                       # Number of ticks simulated (Tick)
finalTick                                1631278565000                       # Number of ticks from beginning of simulation (restored from checkpoints and never reset) (Tick)
simFreq                                  1000000000000                       # The number of ticks per simulated second ((Tick/Second))
hostSeconds                                   4913.79                       # Real time elapsed on the host (Second)
hostTickRate                                307313973                       # The number of ticks simulated per host second (ticks/s) ((Tick/Second))
hostMemory                                    8573800                       # Number of bytes of host memory used (Byte)
simInsts                                    200000001                       # Number of instructions simulated (Count)
simOps                                      399676576                       # Number of ops (including micro ops) simulated (Count)
hostInstRate                                    40702                       # Simulator instruction rate (inst/s) ((Count/Second))
hostOpRate                                      81338                       # Simulator op (including micro ops) rate (op/s) ((Count/Second))
system.clk_domain.clock                          1000                       # Clock period in ticks (Tick)
system.cpu.numCycles                                0                       # Number of cpu cycles simulated (Cycle)
system.cpu.numWorkItemsStarted                      0                       # Number of work items this cpu started (Count)
system.cpu.numWorkItemsCompleted                    0                       # Number of work items this cpu completed (Count)
system.cpu.dcache.demandHits::switch_cpus.data     99999983                       # number of demand (read+write) hits (Count)
system.cpu.dcache.demandHits::total          99999983                       # number of demand (read+write) hits (Count)
system.cpu.dcache.overallHits::switch_cpus.data     99999983                       # number of overall hits (Count)
system.cpu.dcache.overallHits::total         99999983                       # number of overall hits (Count)
system.cpu.dcache.demandMisses::switch_cpus.data     14285716                       # number of demand (read+write) misses (Count)
system.cpu.dcache.demandMisses::total        14285716                       # number of demand (read+write) misses (Count)
system.cpu.dcache.overallMisses::switch_cpus.data     14285716                       # number of overall misses (Count)
system.cpu.dcache.overallMisses::total       14285716                       # number of overall misses (Count)
system.cpu.dcache.demandMissLatency::switch_cpus.data 1406727035000                       # number of demand (read+write) miss ticks (Tick)
system.cpu.dcache.demandMissLatency::total 1406727035000                       # number of demand (read+write) miss ticks (Tick)
system.cpu.dcache.overallMissLatency::switch_cpus.data 1406727035000                       # number of overall miss ticks (Tick)
system.cpu.dcache.overallMissLatency::total 1406727035000                       # number of overall miss ticks (Tick)
system.cpu.dcache.demandAccesses::switch_cpus.data    114285699                       # number of demand (read+write) accesses (Count)
system.cpu.dcache.demandAccesses::total     114285699                       # number of demand (read+write) accesses (Count)
system.cpu.dcache.overallAccesses::switch_cpus.data    114285699                       # number of overall (read+write) accesses (Count)
system.cpu.dcache.overallAccesses::total    114285699                       # number of overall (read+write) accesses (Count)
system.cpu.dcache.demandMissRate::switch_cpus.data     0.125000                       # miss rate for demand accesses (Ratio)
system.cpu.dcache.demandMissRate::total      0.125000                       # miss rate for demand accesses (Ratio)
system.cpu.dcache.overallMissRate::switch_cpus.data     0.125000                       # miss rate for overall accesses (Ratio)
system.cpu.dcache.overallMissRate::total     0.125000                       # miss rate for overall accesses (Ratio)
system.cpu.dcache.demandAvgMissLatency::switch_cpus.data 98470.880633                       # average overall miss latency ((Cycle/Count))
system.cpu.dcache.demandAvgMissLatency::total 98470.880633                       # average overall miss latency ((Cycle/Count))
system.cpu.dcache.overallAvgMissLatency::switch_cpus.data 98470.880633                       # average overall miss latency ((Cycle/Count))
system.cpu.dcache.overallAvgMissLatency::total 98470.880633                       # average overall miss latency ((Cycle/Count))
system.cpu.dcache.blockedCycles::no_mshrs            0                       # number of cycles access was blocked (Cycle)
system.cpu.dcache.blockedCycles::no_targets            0                       # number of cycles access was blocked (Cycle)
system.cpu.dcache.blockedCauses::no_mshrs            0                       # number of times access was blocked (Count)
system.cpu.dcache.blockedCauses::no_targets            0                       # number of times access was blocked (Count)
system.cpu.dcache.avgBlocked::no_mshrs            nan                       # average number of cycles each access was blocked ((Cycle/Count))
system.cpu.dcache.avgBlocked::no_targets          nan                       # average number of cycles each access was blocked ((Cycle/Count))
system.cpu.dcache.writebacks::writebacks     14285710                       # number of writebacks (Count)
system.cpu.dcache.writebacks::total          14285710                       # number of writebacks (Count)
system.cpu.dcache.demandMshrHits::switch_cpus.data            4                       # number of demand (read+write) MSHR hits (Count)
system.cpu.dcache.demandMshrHits::total             4                       # number of demand (read+write) MSHR hits (Count)
system.cpu.dcache.overallMshrHits::switch_cpus.data            4                       # number of overall MSHR hits (Count)
system.cpu.dcache.overallMshrHits::total            4                       # number of overall MSHR hits (Count)
system.cpu.dcache.demandMshrMisses::switch_cpus.data     14285712                       # number of demand (read+write) MSHR misses (Count)
system.cpu.dcache.demandMshrMisses::total     14285712                       # number of demand (read+write) MSHR misses (Count)
system.cpu.dcache.overallMshrMisses::switch_cpus.data     14285712                       # number of overall MSHR misses (Count)
system.cpu.dcache.overallMshrMisses::total     14285712                       # number of overall MSHR misses (Count)
system.cpu.dcache.demandMshrMissLatency::switch_cpus.data 1392441036000                       # number of demand (read+write) MSHR miss ticks (Tick)
system.cpu.dcache.demandMshrMissLatency::total 1392441036000                       # number of demand (read+write) MSHR miss ticks (Tick)
system.cpu.dcache.overallMshrMissLatency::switch_cpus.data 1392441036000                       # number of overall MSHR miss ticks (Tick)
system.cpu.dcache.overallMshrMissLatency::total 1392441036000                       # number of overall MSHR miss ticks (Tick)
system.cpu.dcache.demandMshrMissRate::switch_cpus.data     0.125000                       # mshr miss ratio for demand accesses (Ratio)
system.cpu.dcache.demandMshrMissRate::total     0.125000                       # mshr miss ratio for demand accesses (Ratio)
system.cpu.dcache.overallMshrMissRate::switch_cpus.data     0.125000                       # mshr miss ratio for overall accesses (Ratio)
system.cpu.dcache.overallMshrMissRate::total     0.125000                       # mshr miss ratio for overall accesses (Ratio)
system.cpu.dcache.demandAvgMshrMissLatency::switch_cpus.data 97470.888115                       # average overall mshr miss latency ((Cycle/Count))
system.cpu.dcache.demandAvgMshrMissLatency::total 97470.888115                       # average overall mshr miss latency ((Cycle/Count))
system.cpu.dcache.overallAvgMshrMissLatency::switch_cpus.data 97470.888115                       # average overall mshr miss latency ((Cycle/Count))
system.cpu.dcache.overallAvgMshrMissLatency::total 97470.888115                       # average overall mshr miss latency ((Cycle/Count))
system.cpu.dcache.replacements               14285711                       # number of replacements (Count)
system.cpu.dcache.ReadReq.hits::switch_cpus.data           13                       # number of ReadReq hits (Count)
system.cpu.dcache.ReadReq.hits::total              13                       # number of ReadReq hits (Count)
system.cpu.dcache.ReadReq.misses::switch_cpus.data            5                       # number of ReadReq misses (Count)
system.cpu.dcache.ReadReq.misses::total             5                       # number of ReadReq misses (Count)
system.cpu.dcache.ReadReq.missLatency::switch_cpus.data       374500                       # number of ReadReq miss ticks (Tick)
system.cpu.dcache.ReadReq.missLatency::total       374500                       # number of ReadReq miss ticks (Tick)
system.cpu.dcache.ReadReq.accesses::switch_cpus.data           18                       # number of ReadReq accesses(hits+misses) (Count)
system.cpu.dcache.ReadReq.accesses::total           18                       # number of ReadReq accesses(hits+misses) (Count)
system.cpu.dcache.ReadReq.missRate::switch_cpus.data     0.277778                       # miss rate for ReadReq accesses (Ratio)
system.cpu.dcache.ReadReq.missRate::total     0.277778                       # miss rate for ReadReq accesses (Ratio)
system.cpu.dcache.ReadReq.avgMissLatency::switch_cpus.data        74900                       # average ReadReq miss latency ((Tick/Count))
system.cpu.dcache.ReadReq.avgMissLatency::total        74900                       # average ReadReq miss latency ((Tick/Count))
system.cpu.dcache.ReadReq.mshrHits::switch_cpus.data            4                       # number of ReadReq MSHR hits (Count)
system.cpu.dcache.ReadReq.mshrHits::total            4                       # number of ReadReq MSHR hits (Count)
system.cpu.dcache.ReadReq.mshrMisses::switch_cpus.data            1                       # number of ReadReq MSHR misses (Count)
system.cpu.dcache.ReadReq.mshrMisses::total            1                       # number of ReadReq MSHR misses (Count)
system.cpu.dcache.ReadReq.mshrMissLatency::switch_cpus.data        85500                       # number of ReadReq MSHR miss ticks (Tick)
system.cpu.dcache.ReadReq.mshrMissLatency::total        85500                       # number of ReadReq MSHR miss ticks (Tick)
system.cpu.dcache.ReadReq.mshrMissRate::switch_cpus.data     0.055556                       # mshr miss rate for ReadReq accesses (Ratio)
system.cpu.dcache.ReadReq.mshrMissRate::total     0.055556                       # mshr miss rate for ReadReq accesses (Ratio)
system.cpu.dcache.ReadReq.avgMshrMissLatency::switch_cpus.data        85500                       # average ReadReq mshr miss latency ((Tick/Count))
system.cpu.dcache.ReadReq.avgMshrMissLatency::total        85500                       # average ReadReq mshr miss latency ((Tick/Count))
system.cpu.dcache.WriteReq.hits::switch_cpus.data     99999970                       # number of WriteReq hits (Count)
system.cpu.dcache.WriteReq.hits::total       99999970                       # number of WriteReq hits (Count)
system.cpu.dcache.WriteReq.misses::switch_cpus.data     14285711                       # number of WriteReq misses (Count)
system.cpu.dcache.WriteReq.misses::total     14285711                       # number of WriteReq misses (Count)
system.cpu.dcache.WriteReq.missLatency::switch_cpus.data 1406726660500                       # number of WriteReq miss ticks (Tick)
system.cpu.dcache.WriteReq.missLatency::total 1406726660500                       # number of WriteReq miss ticks (Tick)
system.cpu.dcache.WriteReq.accesses::switch_cpus.data    114285681                       # number of WriteReq accesses(hits+misses) (Count)
system.cpu.dcache.WriteReq.accesses::total    114285681                       # number of WriteReq accesses(hits+misses) (Count)
system.cpu.dcache.WriteReq.missRate::switch_cpus.data     0.125000                       # miss rate for WriteReq accesses (Ratio)
system.cpu.dcache.WriteReq.missRate::total     0.125000                       # miss rate for WriteReq accesses (Ratio)
system.cpu.dcache.WriteReq.avgMissLatency::switch_cpus.data 98470.888883                       # average WriteReq miss latency ((Tick/Count))
system.cpu.dcache.WriteReq.avgMissLatency::total 98470.888883                       # average WriteReq miss latency ((Tick/Count))
system.cpu.dcache.WriteReq.mshrMisses::switch_cpus.data     14285711                       # number of WriteReq MSHR misses (Count)
system.cpu.dcache.WriteReq.mshrMisses::total     14285711                       # number of WriteReq MSHR misses (Count)
system.cpu.dcache.WriteReq.mshrMissLatency::switch_cpus.data 1392440950500                       # number of WriteReq MSHR miss ticks (Tick)
system.cpu.dcache.WriteReq.mshrMissLatency::total 1392440950500                       # number of WriteReq MSHR miss ticks (Tick)
system.cpu.dcache.WriteReq.mshrMissRate::switch_cpus.data     0.125000                       # mshr miss rate for WriteReq accesses (Ratio)
system.cpu.dcache.WriteReq.mshrMissRate::total     0.125000                       # mshr miss rate for WriteReq accesses (Ratio)
system.cpu.dcache.WriteReq.avgMshrMissLatency::switch_cpus.data 97470.888953                       # average WriteReq mshr miss latency ((Tick/Count))
system.cpu.dcache.WriteReq.avgMshrMissLatency::total 97470.888953                       # average WriteReq mshr miss latency ((Tick/Count))
system.cpu.dcache.power_state.pwrStateResidencyTicks::UNDEFINED 1631278565000                       # Cumulative time (in ticks) in various power states (Tick)
system.cpu.dcache.tags.tagsInUse                 1024                       # Average ticks per tags in use ((Tick/Count))
system.cpu.dcache.tags.totalRefs            114293886                       # Total number of references to valid blocks. (Count)
system.cpu.dcache.tags.sampledRefs           14286735                       # Sample count of references to valid blocks. (Count)
system.cpu.dcache.tags.avgRefs               8.000000                       # Average number of references to valid blocks. ((Count/Count))
system.cpu.dcache.tags.warmupTick                   0                       # The tick when the warmup percentage was hit. (Tick)
system.cpu.dcache.tags.occupancies::cpu.data     0.060962                       # Average occupied blocks per tick, per requestor ((Count/Tick))
system.cpu.dcache.tags.occupancies::switch_cpus.data  1023.939038                       # Average occupied blocks per tick, per requestor ((Count/Tick))
system.cpu.dcache.tags.avgOccs::cpu.data     0.000060                       # Average percentage of cache occupancy ((Ratio/Tick))
system.cpu.dcache.tags.avgOccs::switch_cpus.data     0.999940                       # Average percentage of cache occupancy ((Ratio/Tick))
system.cpu.dcache.tags.avgOccs::total               1                       # Average percentage of cache occupancy ((Ratio/Tick))
system.cpu.dcache.tags.occupanciesTaskId::1024         1024                       # Occupied blocks per task id (Count)
system.cpu.dcache.tags.ageTaskId_1024::0           91                       # Occupied blocks per task id, per block age (Count)
system.cpu.dcache.tags.ageTaskId_1024::1          595                       # Occupied blocks per task id, per block age (Count)
system.cpu.dcache.tags.ageTaskId_1024::2          338                       # Occupied blocks per task id, per block age (Count)
system.cpu.dcache.tags.ratioOccsTaskId::1024            1                       # Ratio of occupied blocks and all blocks, per task id (Ratio)
system.cpu.dcache.tags.tagAccesses          928571303                       # Number of tag accesses (Count)
system.cpu.dcache.tags.dataAccesses         928571303                       # Number of data accesses (Count)
system.cpu.dcache.tags.power_state.pwrStateResidencyTicks::UNDEFINED 1631278565000                       # Cumulative time (in ticks) in various power states (Tick)
system.cpu.dtb_walker_cache.blockedCycles::no_mshrs            0                       # number of cycles access was blocked (Cycle)
system.cpu.dtb_walker_cache.blockedCycles::no_targets            0                       # number of cycles access was blocked (Cycle)
system.cpu.dtb_walker_cache.blockedCauses::no_mshrs            0                       # number of times access was blocked (Count)
system.cpu.dtb_walker_cache.blockedCauses::no_targets            0                       # number of times access was blocked (Count)
system.cpu.dtb_walker_cache.avgBlocked::no_mshrs          nan                       # average number of cycles each access was blocked ((Cycle/Count))
system.cpu.dtb_walker_cache.avgBlocked::no_targets          nan                       # average number of cycles each access was blocked ((Cycle/Count))
system.cpu.dtb_walker_cache.replacements            0                       # number of replacements (Count)
system.cpu.dtb_walker_cache.power_state.pwrStateResidencyTicks::UNDEFINED 1631278565000                       # Cumulative time (in ticks) in various power states (Tick)
system.cpu.dtb_walker_cache.tags.tagsInUse            0                       # Average ticks per tags in use ((Tick/Count))
system.cpu.dtb_walker_cache.tags.totalRefs            0                       # Total number of references to valid blocks. (Count)
system.cpu.dtb_walker_cache.tags.sampledRefs            0                       # Sample count of references to valid blocks. (Count)
system.cpu.dtb_walker_cache.tags.avgRefs          nan                       # Average number of references to valid blocks. ((Count/Count))
system.cpu.dtb_walker_cache.tags.warmupTick            0                       # The tick when the warmup percentage was hit. (Tick)
system.cpu.dtb_walker_cache.tags.tagAccesses            0                       # Number of tag accesses (Count)
system.cpu.dtb_walker_cache.tags.dataAccesses            0                       # Number of data accesses (Count)
system.cpu.dtb_walker_cache.tags.power_state.pwrStateResidencyTicks::UNDEFINED 1631278565000                       # Cumulative time (in ticks) in various power states (Tick)
system.cpu.exec_context.thread_0.numInsts            0                       # Number of instructions committed (Count)
system.cpu.exec_context.thread_0.numOps             0                       # Number of ops (including micro ops) committed (Count)
system.cpu.exec_context.thread_0.numIntAluAccesses            0                       # Number of integer alu accesses (Count)
system.cpu.exec_context.thread_0.numFpAluAccesses            0                       # Number of float alu accesses (Count)
system.cpu.exec_context.thread_0.numVecAluAccesses            0                       # Number of vector alu accesses (Count)
system.cpu.exec_context.thread_0.numCallsReturns            0                       # Number of times a function call or return occured (Count)
system.cpu.exec_context.thread_0.numCondCtrlInsts            0                       # Number of instructions that are conditional controls (Count)
system.cpu.exec_context.thread_0.numIntInsts            0                       # Number of integer instructions (Count)
system.cpu.exec_context.thread_0.numFpInsts            0                       # Number of float instructions (Count)
system.cpu.exec_context.thread_0.numVecInsts            0                       # Number of vector instructions (Count)
system.cpu.exec_context.thread_0.numIntRegReads            0                       # Number of times the integer registers were read (Count)
system.cpu.exec_context.thread_0.numIntRegWrites            0                       # Number of times the integer registers were written (Count)
system.cpu.exec_context.thread_0.numFpRegReads            0                       # Number of times the floating registers were read (Count)
system.cpu.exec_context.thread_0.numFpRegWrites            0                       # Number of times the floating registers were written (Count)
system.cpu.exec_context.thread_0.numVecRegReads            0                       # Number of times the vector registers were read (Count)
system.cpu.exec_context.thread_0.numVecRegWrites            0                       # Number of times the vector registers were written (Count)
system.cpu.exec_context.thread_0.numVecPredRegReads            0                       # Number of times the predicate registers were read (Count)
system.cpu.exec_context.thread_0.numVecPredRegWrites            0                       # Number of times the predicate registers were written (Count)
system.cpu.exec_context.thread_0.numMiscRegReads            0                       # Number of times the Misc registers were read (Count)
system.cpu.exec_context.thread_0.numMiscRegWrites            0                       # Number of times the Misc registers were written (Count)
system.cpu.exec_context.thread_0.numMemRefs            0                       # Number of memory refs (Count)
system.cpu.exec_context.thread_0.numLoadInsts            0                       # Number of load instructions (Count)
system.cpu.exec_context.thread_0.numStoreInsts            0                       # Number of store instructions (Count)
system.cpu.exec_context.thread_0.numIdleCycles            0                       # Number of idle cycles (Cycle)
system.cpu.exec_context.thread_0.numBusyCycles            0                       # Number of busy cycles (Cycle)
system.cpu.exec_context.thread_0.notIdleFraction            1                       # Percentage of non-idle cycles (Ratio)
system.cpu.exec_context.thread_0.idleFraction            0                       # Percentage of idle cycles (Ratio)
system.cpu.exec_context.thread_0.statExecutedInstType::No_OpClass            0                       # Class of executed instruction. (Count)
system.cpu.exec_context.thread_0.statExecutedInstType::IntAlu            0                       # Class of executed instruction. (Count)
system.cpu.exec_context.thread_0.statExecutedInstType::IntMult            0                       # Class of executed instruction. (Count)
system.cpu.exec_context.thread_0.statExecutedInstType::IntDiv            0                       # Class of executed instruction. (Count)
system.cpu.exec_context.thread_0.statExecutedInstType::FloatAdd            0                       # Class of executed instruction. (Count)
system.cpu.exec_context.thread_0.statExecutedInstType::FloatCmp            0                       # Class of executed instruction. (Count)
system.cpu.exec_context.thread_0.statExecutedInstType::FloatCvt            0                       # Class of executed instruction. (Count)
system.cpu.exec_context.thread_0.statExecutedInstType::FloatMult            0                       # Class of executed instruction. (Count)
system.cpu.exec_context.thread_0.statExecutedInstType::FloatMultAcc            0                       # Class of executed instruction. (Count)
system.cpu.exec_context.thread_0.statExecutedInstType::FloatDiv            0                       # Class of executed instruction. (Count)
system.cpu.exec_context.thread_0.statExecutedInstType::FloatMisc            0                       # Class of executed instruction. (Count)
system.cpu.exec_context.thread_0.statExecutedInstType::FloatSqrt            0                       # Class of executed instruction. (Count)
system.cpu.exec_context.thread_0.statExecutedInstType::SimdAdd            0                       # Class of executed instruction. (Count)
system.cpu.exec_context.thread_0.statExecutedInstType::SimdAddAcc            0                       # Class of executed instruction. (Count)
system.cpu.exec_context.thread_0.statExecutedInstType::SimdAlu            0                       # Class of executed instruction. (Count)
system.cpu.exec_context.thread_0.statExecutedInstType::SimdCmp            0                       # Class of executed instruction. (Count)
system.cpu.exec_context.thread_0.statExecutedInstType::SimdCvt            0                       # Class of executed instruction. (Count)
system.cpu.exec_context.thread_0.statExecutedInstType::SimdMisc            0                       # Class of executed instruction. (Count)
system.cpu.exec_context.thread_0.statExecutedInstType::SimdMult            0                       # Class of executed instruction. (Count)
system.cpu.exec_context.thread_0.statExecutedInstType::SimdMultAcc            0                       # Class of executed instruction. (Count)
system.cpu.exec_context.thread_0.statExecutedInstType::SimdShift            0                       # Class of executed instruction. (Count)
system.cpu.exec_context.thread_0.statExecutedInstType::SimdShiftAcc            0                       # Class of executed instruction. (Count)
system.cpu.exec_context.thread_0.statExecutedInstType::SimdDiv            0                       # Class of executed instruction. (Count)
system.cpu.exec_context.thread_0.statExecutedInstType::SimdSqrt            0                       # Class of executed instruction. (Count)
system.cpu.exec_context.thread_0.statExecutedInstType::SimdFloatAdd            0                       # Class of executed instruction. (Count)
system.cpu.exec_context.thread_0.statExecutedInstType::SimdFloatAlu            0                       # Class of executed instruction. (Count)
system.cpu.exec_context.thread_0.statExecutedInstType::SimdFloatCmp            0                       # Class of executed instruction. (Count)
system.cpu.exec_context.thread_0.statExecutedInstType::SimdFloatCvt            0                       # Class of executed instruction. (Count)
system.cpu.exec_context.thread_0.statExecutedInstType::SimdFloatDiv            0                       # Class of executed instruction. (Count)
system.cpu.exec_context.thread_0.statExecutedInstType::SimdFloatMisc            0                       # Class of executed instruction. (Count)
system.cpu.exec_context.thread_0.statExecutedInstType::SimdFloatMult            0                       # Class of executed instruction. (Count)
system.cpu.exec_context.thread_0.statExecutedInstType::SimdFloatMultAcc            0                       # Class of executed instruction. (Count)
system.cpu.exec_context.thread_0.statExecutedInstType::SimdFloatSqrt            0                       # Class of executed instruction. (Count)
system.cpu.exec_context.thread_0.statExecutedInstType::SimdReduceAdd            0                       # Class of executed instruction. (Count)
system.cpu.exec_context.thread_0.statExecutedInstType::SimdReduceAlu            0                       # Class of executed instruction. (Count)
system.cpu.exec_context.thread_0.statExecutedInstType::SimdReduceCmp            0                       # Class of executed instruction. (Count)
system.cpu.exec_context.thread_0.statExecutedInstType::SimdFloatReduceAdd            0                       # Class of executed instruction. (Count)
system.cpu.exec_context.thread_0.statExecutedInstType::SimdFloatReduceCmp            0                       # Class of executed instruction. (Count)
system.cpu.exec_context.thread_0.statExecutedInstType::SimdAes            0                       # Class of executed instruction. (Count)
system.cpu.exec_context.thread_0.statExecutedInstType::SimdAesMix            0                       # Class of executed instruction. (Count)
system.cpu.exec_context.thread_0.statExecutedInstType::SimdSha1Hash            0                       # Class of executed instruction. (Count)
system.cpu.exec_context.thread_0.statExecutedInstType::SimdSha1Hash2            0                       # Class of executed instruction. (Count)
system.cpu.exec_context.thread_0.statExecutedInstType::SimdSha256Hash            0                       # Class of executed instruction. (Count)
system.cpu.exec_context.thread_0.statExecutedInstType::SimdSha256Hash2            0                       # Class of executed instruction. (Count)
system.cpu.exec_context.thread_0.statExecutedInstType::SimdShaSigma2            0                       # Class of executed instruction. (Count)
system.cpu.exec_context.thread_0.statExecutedInstType::SimdShaSigma3            0                       # Class of executed instruction. (Count)
system.cpu.exec_context.thread_0.statExecutedInstType::SimdPredAlu            0                       # Class of executed instruction. (Count)
system.cpu.exec_context.thread_0.statExecutedInstType::MemRead            0                       # Class of executed instruction. (Count)
system.cpu.exec_context.thread_0.statExecutedInstType::MemWrite            0                       # Class of executed instruction. (Count)
system.cpu.exec_context.thread_0.statExecutedInstType::FloatMemRead            0                       # Class of executed instruction. (Count)
system.cpu.exec_context.thread_0.statExecutedInstType::FloatMemWrite            0                       # Class of executed instruction. (Count)
system.cpu.exec_context.thread_0.statExecutedInstType::IprAccess            0                       # Class of executed instruction. (Count)
system.cpu.exec_context.thread_0.statExecutedInstType::InstPrefetch            0                       # Class of executed instruction. (Count)
system.cpu.exec_context.thread_0.statExecutedInstType::total            0                       # Class of executed instruction. (Count)
system.cpu.icache.demandHits::switch_cpus.inst            1                       # number of demand (read+write) hits (Count)
system.cpu.icache.demandHits::total                 1                       # number of demand (read+write) hits (Count)
system.cpu.icache.overallHits::switch_cpus.inst            1                       # number of overall hits (Count)
system.cpu.icache.overallHits::total                1                       # number of overall hits (Count)
system.cpu.icache.demandAccesses::switch_cpus.inst            1                       # number of demand (read+write) accesses (Count)
system.cpu.icache.demandAccesses::total             1                       # number of demand (read+write) accesses (Count)
system.cpu.icache.overallAccesses::switch_cpus.inst            1                       # number of overall (read+write) accesses (Count)
system.cpu.icache.overallAccesses::total            1                       # number of overall (read+write) accesses (Count)
system.cpu.icache.blockedCycles::no_mshrs            0                       # number of cycles access was blocked (Cycle)
system.cpu.icache.blockedCycles::no_targets            0                       # number of cycles access was blocked (Cycle)
system.cpu.icache.blockedCauses::no_mshrs            0                       # number of times access was blocked (Count)
system.cpu.icache.blockedCauses::no_targets            0                       # number of times access was blocked (Count)
system.cpu.icache.avgBlocked::no_mshrs            nan                       # average number of cycles each access was blocked ((Cycle/Count))
system.cpu.icache.avgBlocked::no_targets          nan                       # average number of cycles each access was blocked ((Cycle/Count))
system.cpu.icache.replacements                      0                       # number of replacements (Count)
system.cpu.icache.ReadReq.hits::switch_cpus.inst            1                       # number of ReadReq hits (Count)
system.cpu.icache.ReadReq.hits::total               1                       # number of ReadReq hits (Count)
system.cpu.icache.ReadReq.accesses::switch_cpus.inst            1                       # number of ReadReq accesses(hits+misses) (Count)
system.cpu.icache.ReadReq.accesses::total            1                       # number of ReadReq accesses(hits+misses) (Count)
system.cpu.icache.power_state.pwrStateResidencyTicks::UNDEFINED 1631278565000                       # Cumulative time (in ticks) in various power states (Tick)
system.cpu.icache.tags.tagsInUse                  848                       # Average ticks per tags in use ((Tick/Count))
system.cpu.icache.tags.totalRefs            142700206                       # Total number of references to valid blocks. (Count)
system.cpu.icache.tags.sampledRefs                848                       # Sample count of references to valid blocks. (Count)
system.cpu.icache.tags.avgRefs           168278.544811                       # Average number of references to valid blocks. ((Count/Count))
system.cpu.icache.tags.warmupTick                   0                       # The tick when the warmup percentage was hit. (Tick)
system.cpu.icache.tags.occupancies::cpu.inst          848                       # Average occupied blocks per tick, per requestor ((Count/Tick))
system.cpu.icache.tags.avgOccs::cpu.inst     0.828125                       # Average percentage of cache occupancy ((Ratio/Tick))
system.cpu.icache.tags.avgOccs::total        0.828125                       # Average percentage of cache occupancy ((Ratio/Tick))
system.cpu.icache.tags.occupanciesTaskId::1024          848                       # Occupied blocks per task id (Count)
system.cpu.icache.tags.ageTaskId_1024::4          848                       # Occupied blocks per task id, per block age (Count)
system.cpu.icache.tags.ratioOccsTaskId::1024     0.828125                       # Ratio of occupied blocks and all blocks, per task id (Ratio)
system.cpu.icache.tags.tagAccesses                  2                       # Number of tag accesses (Count)
system.cpu.icache.tags.dataAccesses                 2                       # Number of data accesses (Count)
system.cpu.icache.tags.power_state.pwrStateResidencyTicks::UNDEFINED 1631278565000                       # Cumulative time (in ticks) in various power states (Tick)
system.cpu.interrupts.clk_domain.clock           8000                       # Clock period in ticks (Tick)
system.cpu.itb_walker_cache.blockedCycles::no_mshrs            0                       # number of cycles access was blocked (Cycle)
system.cpu.itb_walker_cache.blockedCycles::no_targets            0                       # number of cycles access was blocked (Cycle)
system.cpu.itb_walker_cache.blockedCauses::no_mshrs            0                       # number of times access was blocked (Count)
system.cpu.itb_walker_cache.blockedCauses::no_targets            0                       # number of times access was blocked (Count)
system.cpu.itb_walker_cache.avgBlocked::no_mshrs          nan                       # average number of cycles each access was blocked ((Cycle/Count))
system.cpu.itb_walker_cache.avgBlocked::no_targets          nan                       # average number of cycles each access was blocked ((Cycle/Count))
system.cpu.itb_walker_cache.replacements            0                       # number of replacements (Count)
system.cpu.itb_walker_cache.power_state.pwrStateResidencyTicks::UNDEFINED 1631278565000                       # Cumulative time (in ticks) in various power states (Tick)
system.cpu.itb_walker_cache.tags.tagsInUse            0                       # Average ticks per tags in use ((Tick/Count))
system.cpu.itb_walker_cache.tags.totalRefs            0                       # Total number of references to valid blocks. (Count)
system.cpu.itb_walker_cache.tags.sampledRefs            0                       # Sample count of references to valid blocks. (Count)
system.cpu.itb_walker_cache.tags.avgRefs          nan                       # Average number of references to valid blocks. ((Count/Count))
system.cpu.itb_walker_cache.tags.warmupTick            0                       # The tick when the warmup percentage was hit. (Tick)
system.cpu.itb_walker_cache.tags.tagAccesses            0                       # Number of tag accesses (Count)
system.cpu.itb_walker_cache.tags.dataAccesses            0                       # Number of data accesses (Count)
system.cpu.itb_walker_cache.tags.power_state.pwrStateResidencyTicks::UNDEFINED 1631278565000                       # Cumulative time (in ticks) in various power states (Tick)
system.cpu.mmu.dtb.rdAccesses                       0                       # TLB accesses on read requests (Count)
system.cpu.mmu.dtb.wrAccesses                       0                       # TLB accesses on write requests (Count)
system.cpu.mmu.dtb.rdMisses                         0                       # TLB misses on read requests (Count)
system.cpu.mmu.dtb.wrMisses                         0                       # TLB misses on write requests (Count)
system.cpu.mmu.dtb.walker.power_state.pwrStateResidencyTicks::UNDEFINED 1631278565000                       # Cumulative time (in ticks) in various power states (Tick)
system.cpu.mmu.itb.rdAccesses                       0                       # TLB accesses on read requests (Count)
system.cpu.mmu.itb.wrAccesses                       0                       # TLB accesses on write requests (Count)
system.cpu.mmu.itb.rdMisses                         0                       # TLB misses on read requests (Count)
system.cpu.mmu.itb.wrMisses                         0                       # TLB misses on write requests (Count)
system.cpu.mmu.itb.walker.power_state.pwrStateResidencyTicks::UNDEFINED 1631278565000                       # Cumulative time (in ticks) in various power states (Tick)
system.cpu.power_state.pwrStateResidencyTicks::OFF 1510074873000                       # Cumulative time (in ticks) in various power states (Tick)
system.cpu.thread_0.numInsts                        0                       # Number of Instructions committed (Count)
system.cpu.thread_0.numOps                          0                       # Number of Ops committed (Count)
system.cpu.thread_0.numMemRefs                      0                       # Number of Memory References (Count)
system.cpu.workload.numSyscalls                     0                       # Number of system calls (Count)
system.cpu_clk_domain.clock                       500                       # Clock period in ticks (Tick)
system.cpu_voltage_domain.voltage                   1                       # Voltage in Volts (Volt)
system.l2.demandMisses::switch_cpus.data     14285712                       # number of demand (read+write) misses (Count)
system.l2.demandMisses::total                14285712                       # number of demand (read+write) misses (Count)
system.l2.overallMisses::switch_cpus.data     14285712                       # number of overall misses (Count)
system.l2.overallMisses::total               14285712                       # number of overall misses (Count)
system.l2.demandMissLatency::switch_cpus.data 1371012469500                       # number of demand (read+write) miss ticks (Tick)
system.l2.demandMissLatency::total       1371012469500                       # number of demand (read+write) miss ticks (Tick)
system.l2.overallMissLatency::switch_cpus.data 1371012469500                       # number of overall miss ticks (Tick)
system.l2.overallMissLatency::total      1371012469500                       # number of overall miss ticks (Tick)
system.l2.demandAccesses::switch_cpus.data     14285712                       # number of demand (read+write) accesses (Count)
system.l2.demandAccesses::total              14285712                       # number of demand (read+write) accesses (Count)
system.l2.overallAccesses::switch_cpus.data     14285712                       # number of overall (read+write) accesses (Count)
system.l2.overallAccesses::total             14285712                       # number of overall (read+write) accesses (Count)
system.l2.demandMissRate::switch_cpus.data            1                       # miss rate for demand accesses (Ratio)
system.l2.demandMissRate::total                     1                       # miss rate for demand accesses (Ratio)
system.l2.overallMissRate::switch_cpus.data            1                       # miss rate for overall accesses (Ratio)
system.l2.overallMissRate::total                    1                       # miss rate for overall accesses (Ratio)
system.l2.demandAvgMissLatency::switch_cpus.data 95970.888220                       # average overall miss latency ((Cycle/Count))
system.l2.demandAvgMissLatency::total    95970.888220                       # average overall miss latency ((Cycle/Count))
system.l2.overallAvgMissLatency::switch_cpus.data 95970.888220                       # average overall miss latency ((Cycle/Count))
system.l2.overallAvgMissLatency::total   95970.888220                       # average overall miss latency ((Cycle/Count))
system.l2.blockedCycles::no_mshrs                   0                       # number of cycles access was blocked (Cycle)
system.l2.blockedCycles::no_targets                 0                       # number of cycles access was blocked (Cycle)
system.l2.blockedCauses::no_mshrs                   0                       # number of times access was blocked (Count)
system.l2.blockedCauses::no_targets                 0                       # number of times access was blocked (Count)
system.l2.avgBlocked::no_mshrs                    nan                       # average number of cycles each access was blocked ((Cycle/Count))
system.l2.avgBlocked::no_targets                  nan                       # average number of cycles each access was blocked ((Cycle/Count))
system.l2.writebacks::writebacks             14285710                       # number of writebacks (Count)
system.l2.writebacks::total                  14285710                       # number of writebacks (Count)
system.l2.demandMshrMisses::switch_cpus.data     14285712                       # number of demand (read+write) MSHR misses (Count)
system.l2.demandMshrMisses::total            14285712                       # number of demand (read+write) MSHR misses (Count)
system.l2.overallMshrMisses::switch_cpus.data     14285712                       # number of overall MSHR misses (Count)
system.l2.overallMshrMisses::total           14285712                       # number of overall MSHR misses (Count)
system.l2.demandMshrMissLatency::switch_cpus.data 1228155359500                       # number of demand (read+write) MSHR miss ticks (Tick)
system.l2.demandMshrMissLatency::total   1228155359500                       # number of demand (read+write) MSHR miss ticks (Tick)
system.l2.overallMshrMissLatency::switch_cpus.data 1228155359500                       # number of overall MSHR miss ticks (Tick)
system.l2.overallMshrMissLatency::total  1228155359500                       # number of overall MSHR miss ticks (Tick)
system.l2.demandMshrMissRate::switch_cpus.data            1                       # mshr miss ratio for demand accesses (Ratio)
system.l2.demandMshrMissRate::total                 1                       # mshr miss ratio for demand accesses (Ratio)
system.l2.overallMshrMissRate::switch_cpus.data            1                       # mshr miss ratio for overall accesses (Ratio)
system.l2.overallMshrMissRate::total                1                       # mshr miss ratio for overall accesses (Ratio)
system.l2.demandAvgMshrMissLatency::switch_cpus.data 85970.888920                       # average overall mshr miss latency ((Cycle/Count))
system.l2.demandAvgMshrMissLatency::total 85970.888920                       # average overall mshr miss latency ((Cycle/Count))
system.l2.overallAvgMshrMissLatency::switch_cpus.data 85970.888920                       # average overall mshr miss latency ((Cycle/Count))
system.l2.overallAvgMshrMissLatency::total 85970.888920                       # average overall mshr miss latency ((Cycle/Count))
system.l2.replacements                       14286086                       # number of replacements (Count)
system.l2.ReadExReq.misses::switch_cpus.data     14285711                       # number of ReadExReq misses (Count)
system.l2.ReadExReq.misses::total            14285711                       # number of ReadExReq misses (Count)
system.l2.ReadExReq.missLatency::switch_cpus.data 1371012385500                       # number of ReadExReq miss ticks (Tick)
system.l2.ReadExReq.missLatency::total   1371012385500                       # number of ReadExReq miss ticks (Tick)
system.l2.ReadExReq.accesses::switch_cpus.data     14285711                       # number of ReadExReq accesses(hits+misses) (Count)
system.l2.ReadExReq.accesses::total          14285711                       # number of ReadExReq accesses(hits+misses) (Count)
system.l2.ReadExReq.missRate::switch_cpus.data            1                       # miss rate for ReadExReq accesses (Ratio)
system.l2.ReadExReq.missRate::total                 1                       # miss rate for ReadExReq accesses (Ratio)
system.l2.ReadExReq.avgMissLatency::switch_cpus.data 95970.889058                       # average ReadExReq miss latency ((Tick/Count))
system.l2.ReadExReq.avgMissLatency::total 95970.889058                       # average ReadExReq miss latency ((Tick/Count))
system.l2.ReadExReq.mshrMisses::switch_cpus.data     14285711                       # number of ReadExReq MSHR misses (Count)
system.l2.ReadExReq.mshrMisses::total        14285711                       # number of ReadExReq MSHR misses (Count)
system.l2.ReadExReq.mshrMissLatency::switch_cpus.data 1228155285500                       # number of ReadExReq MSHR miss ticks (Tick)
system.l2.ReadExReq.mshrMissLatency::total 1228155285500                       # number of ReadExReq MSHR miss ticks (Tick)
system.l2.ReadExReq.mshrMissRate::switch_cpus.data            1                       # mshr miss rate for ReadExReq accesses (Ratio)
system.l2.ReadExReq.mshrMissRate::total             1                       # mshr miss rate for ReadExReq accesses (Ratio)
system.l2.ReadExReq.avgMshrMissLatency::switch_cpus.data 85970.889758                       # average ReadExReq mshr miss latency ((Tick/Count))
system.l2.ReadExReq.avgMshrMissLatency::total 85970.889758                       # average ReadExReq mshr miss latency ((Tick/Count))
system.l2.ReadSharedReq.misses::switch_cpus.data            1                       # number of ReadSharedReq misses (Count)
system.l2.ReadSharedReq.misses::total               1                       # number of ReadSharedReq misses (Count)
system.l2.ReadSharedReq.missLatency::switch_cpus.data        84000                       # number of ReadSharedReq miss ticks (Tick)
system.l2.ReadSharedReq.missLatency::total        84000                       # number of ReadSharedReq miss ticks (Tick)
system.l2.ReadSharedReq.accesses::switch_cpus.data            1                       # number of ReadSharedReq accesses(hits+misses) (Count)
system.l2.ReadSharedReq.accesses::total             1                       # number of ReadSharedReq accesses(hits+misses) (Count)
system.l2.ReadSharedReq.missRate::switch_cpus.data            1                       # miss rate for ReadSharedReq accesses (Ratio)
system.l2.ReadSharedReq.missRate::total             1                       # miss rate for ReadSharedReq accesses (Ratio)
system.l2.ReadSharedReq.avgMissLatency::switch_cpus.data        84000                       # average ReadSharedReq miss latency ((Tick/Count))
system.l2.ReadSharedReq.avgMissLatency::total        84000                       # average ReadSharedReq miss latency ((Tick/Count))
system.l2.ReadSharedReq.mshrMisses::switch_cpus.data            1                       # number of ReadSharedReq MSHR misses (Count)
system.l2.ReadSharedReq.mshrMisses::total            1                       # number of ReadSharedReq MSHR misses (Count)
system.l2.ReadSharedReq.mshrMissLatency::switch_cpus.data        74000                       # number of ReadSharedReq MSHR miss ticks (Tick)
system.l2.ReadSharedReq.mshrMissLatency::total        74000                       # number of ReadSharedReq MSHR miss ticks (Tick)
system.l2.ReadSharedReq.mshrMissRate::switch_cpus.data            1                       # mshr miss rate for ReadSharedReq accesses (Ratio)
system.l2.ReadSharedReq.mshrMissRate::total            1                       # mshr miss rate for ReadSharedReq accesses (Ratio)
system.l2.ReadSharedReq.avgMshrMissLatency::switch_cpus.data        74000                       # average ReadSharedReq mshr miss latency ((Tick/Count))
system.l2.ReadSharedReq.avgMshrMissLatency::total        74000                       # average ReadSharedReq mshr miss latency ((Tick/Count))
system.l2.WritebackDirty.hits::writebacks     14285710                       # number of WritebackDirty hits (Count)
system.l2.WritebackDirty.hits::total         14285710                       # number of WritebackDirty hits (Count)
system.l2.WritebackDirty.accesses::writebacks     14285710                       # number of WritebackDirty accesses(hits+misses) (Count)
system.l2.WritebackDirty.accesses::total     14285710                       # number of WritebackDirty accesses(hits+misses) (Count)
system.l2.power_state.pwrStateResidencyTicks::UNDEFINED 1631278565000                       # Cumulative time (in ticks) in various power states (Tick)
system.l2.tags.tagsInUse                        32768                       # Average ticks per tags in use ((Tick/Count))
system.l2.tags.totalRefs                     28635934                       # Total number of references to valid blocks. (Count)
system.l2.tags.sampledRefs                   14318854                       # Sample count of references to valid blocks. (Count)
system.l2.tags.avgRefs                       1.999876                       # Average number of references to valid blocks. ((Count/Count))
system.l2.tags.warmupTick                           0                       # The tick when the warmup percentage was hit. (Tick)
system.l2.tags.occupancies::writebacks       0.781565                       # Average occupied blocks per tick, per requestor ((Count/Tick))
system.l2.tags.occupancies::cpu.data        61.853040                       # Average occupied blocks per tick, per requestor ((Count/Tick))
system.l2.tags.occupancies::switch_cpus.data 32705.365395                       # Average occupied blocks per tick, per requestor ((Count/Tick))
system.l2.tags.avgOccs::writebacks           0.000024                       # Average percentage of cache occupancy ((Ratio/Tick))
system.l2.tags.avgOccs::cpu.data             0.001888                       # Average percentage of cache occupancy ((Ratio/Tick))
system.l2.tags.avgOccs::switch_cpus.data     0.998089                       # Average percentage of cache occupancy ((Ratio/Tick))
system.l2.tags.avgOccs::total                1.000000                       # Average percentage of cache occupancy ((Ratio/Tick))
system.l2.tags.occupanciesTaskId::1024          32768                       # Occupied blocks per task id (Count)
system.l2.tags.ageTaskId_1024::0                   91                       # Occupied blocks per task id, per block age (Count)
system.l2.tags.ageTaskId_1024::1                  856                       # Occupied blocks per task id, per block age (Count)
system.l2.tags.ageTaskId_1024::2                 8313                       # Occupied blocks per task id, per block age (Count)
system.l2.tags.ageTaskId_1024::3                22506                       # Occupied blocks per task id, per block age (Count)
system.l2.tags.ageTaskId_1024::4                 1002                       # Occupied blocks per task id, per block age (Count)
system.l2.tags.ratioOccsTaskId::1024                1                       # Ratio of occupied blocks and all blocks, per task id (Ratio)
system.l2.tags.tagAccesses                  242857470                       # Number of tag accesses (Count)
system.l2.tags.dataAccesses                 242857470                       # Number of data accesses (Count)
system.l2.tags.power_state.pwrStateResidencyTicks::UNDEFINED 1631278565000                       # Cumulative time (in ticks) in various power states (Tick)
system.mem_ctrls.avgPriority_writebacks::samples  14285710.00                       # Average QoS priority value for accepted requests (Count)
system.mem_ctrls.avgPriority_switch_cpus.data::samples  14285711.00                       # Average QoS priority value for accepted requests (Count)
system.mem_ctrls.priorityMinLatency      0.000000018750                       # per QoS priority minimum request to response latency (Second)
system.mem_ctrls.priorityMaxLatency      0.000014800500                       # per QoS priority maximum request to response latency (Second)
system.mem_ctrls.numReadWriteTurnArounds       892855                       # Number of turnarounds from READ to WRITE (Count)
system.mem_ctrls.numWriteReadTurnArounds       892855                       # Number of turnarounds from WRITE to READ (Count)
system.mem_ctrls.numStayReadState            42276565                       # Number of times bus staying in READ state (Count)
system.mem_ctrls.numStayWriteState           13460807                       # Number of times bus staying in WRITE state (Count)
system.mem_ctrls.readReqs                    14285711                       # Number of read requests accepted (Count)
system.mem_ctrls.writeReqs                   14285710                       # Number of write requests accepted (Count)
system.mem_ctrls.readBursts                  14285711                       # Number of controller read bursts, including those serviced by the write queue (Count)
system.mem_ctrls.writeBursts                 14285710                       # Number of controller write bursts, including those merged in the write queue (Count)
system.mem_ctrls.servicedByWrQ                      0                       # Number of controller read bursts serviced by the write queue (Count)
system.mem_ctrls.mergedWrBursts                     0                       # Number of controller write bursts merged with an existing one (Count)
system.mem_ctrls.neitherReadNorWriteReqs            0                       # Number of requests that are neither read nor write (Count)
system.mem_ctrls.avgRdQLen                       1.00                       # Average read queue length when enqueuing ((Count/Tick))
system.mem_ctrls.avgWrQLen                      27.14                       # Average write queue length when enqueuing ((Count/Tick))
system.mem_ctrls.numRdRetry                         0                       # Number of times read queue was full causing retry (Count)
system.mem_ctrls.numWrRetry                         0                       # Number of times write queue was full causing retry (Count)
system.mem_ctrls.readPktSize::0                     0                       # Read request sizes (log2) (Count)
system.mem_ctrls.readPktSize::1                     0                       # Read request sizes (log2) (Count)
system.mem_ctrls.readPktSize::2                     0                       # Read request sizes (log2) (Count)
system.mem_ctrls.readPktSize::3                     0                       # Read request sizes (log2) (Count)
system.mem_ctrls.readPktSize::4                     0                       # Read request sizes (log2) (Count)
system.mem_ctrls.readPktSize::5                     0                       # Read request sizes (log2) (Count)
system.mem_ctrls.readPktSize::6              14285711                       # Read request sizes (log2) (Count)
system.mem_ctrls.writePktSize::0                    0                       # Write request sizes (log2) (Count)
system.mem_ctrls.writePktSize::1                    0                       # Write request sizes (log2) (Count)
system.mem_ctrls.writePktSize::2                    0                       # Write request sizes (log2) (Count)
system.mem_ctrls.writePktSize::3                    0                       # Write request sizes (log2) (Count)
system.mem_ctrls.writePktSize::4                    0                       # Write request sizes (log2) (Count)
system.mem_ctrls.writePktSize::5                    0                       # Write request sizes (log2) (Count)
system.mem_ctrls.writePktSize::6             14285710                       # Write request sizes (log2) (Count)
system.mem_ctrls.rdQLenPdf::0                14285710                       # What read queue length does an incoming req see (Count)
system.mem_ctrls.rdQLenPdf::1                       1                       # What read queue length does an incoming req see (Count)
system.mem_ctrls.rdQLenPdf::2                       0                       # What read queue length does an incoming req see (Count)
system.mem_ctrls.rdQLenPdf::3                       0                       # What read queue length does an incoming req see (Count)
system.mem_ctrls.rdQLenPdf::4                       0                       # What read queue length does an incoming req see (Count)
system.mem_ctrls.rdQLenPdf::5                       0                       # What read queue length does an incoming req see (Count)
system.mem_ctrls.rdQLenPdf::6                       0                       # What read queue length does an incoming req see (Count)
system.mem_ctrls.rdQLenPdf::7                       0                       # What read queue length does an incoming req see (Count)
system.mem_ctrls.rdQLenPdf::8                       0                       # What read queue length does an incoming req see (Count)
system.mem_ctrls.rdQLenPdf::9                       0                       # What read queue length does an incoming req see (Count)
system.mem_ctrls.rdQLenPdf::10                      0                       # What read queue length does an incoming req see (Count)
system.mem_ctrls.rdQLenPdf::11                      0                       # What read queue length does an incoming req see (Count)
system.mem_ctrls.rdQLenPdf::12                      0                       # What read queue length does an incoming req see (Count)
system.mem_ctrls.rdQLenPdf::13                      0                       # What read queue length does an incoming req see (Count)
system.mem_ctrls.rdQLenPdf::14                      0                       # What read queue length does an incoming req see (Count)
system.mem_ctrls.rdQLenPdf::15                      0                       # What read queue length does an incoming req see (Count)
system.mem_ctrls.rdQLenPdf::16                      0                       # What read queue length does an incoming req see (Count)
system.mem_ctrls.rdQLenPdf::17                      0                       # What read queue length does an incoming req see (Count)
system.mem_ctrls.rdQLenPdf::18                      0                       # What read queue length does an incoming req see (Count)
system.mem_ctrls.rdQLenPdf::19                      0                       # What read queue length does an incoming req see (Count)
system.mem_ctrls.rdQLenPdf::20                      0                       # What read queue length does an incoming req see (Count)
system.mem_ctrls.rdQLenPdf::21                      0                       # What read queue length does an incoming req see (Count)
system.mem_ctrls.rdQLenPdf::22                      0                       # What read queue length does an incoming req see (Count)
system.mem_ctrls.rdQLenPdf::23                      0                       # What read queue length does an incoming req see (Count)
system.mem_ctrls.rdQLenPdf::24                      0                       # What read queue length does an incoming req see (Count)
system.mem_ctrls.rdQLenPdf::25                      0                       # What read queue length does an incoming req see (Count)
system.mem_ctrls.rdQLenPdf::26                      0                       # What read queue length does an incoming req see (Count)
system.mem_ctrls.rdQLenPdf::27                      0                       # What read queue length does an incoming req see (Count)
system.mem_ctrls.rdQLenPdf::28                      0                       # What read queue length does an incoming req see (Count)
system.mem_ctrls.rdQLenPdf::29                      0                       # What read queue length does an incoming req see (Count)
system.mem_ctrls.rdQLenPdf::30                      0                       # What read queue length does an incoming req see (Count)
system.mem_ctrls.rdQLenPdf::31                      0                       # What read queue length does an incoming req see (Count)
system.mem_ctrls.wrQLenPdf::0                       1                       # What write queue length does an incoming req see (Count)
system.mem_ctrls.wrQLenPdf::1                       1                       # What write queue length does an incoming req see (Count)
system.mem_ctrls.wrQLenPdf::2                       1                       # What write queue length does an incoming req see (Count)
system.mem_ctrls.wrQLenPdf::3                       1                       # What write queue length does an incoming req see (Count)
system.mem_ctrls.wrQLenPdf::4                       1                       # What write queue length does an incoming req see (Count)
system.mem_ctrls.wrQLenPdf::5                       1                       # What write queue length does an incoming req see (Count)
system.mem_ctrls.wrQLenPdf::6                       1                       # What write queue length does an incoming req see (Count)
system.mem_ctrls.wrQLenPdf::7                       1                       # What write queue length does an incoming req see (Count)
system.mem_ctrls.wrQLenPdf::8                       1                       # What write queue length does an incoming req see (Count)
system.mem_ctrls.wrQLenPdf::9                       1                       # What write queue length does an incoming req see (Count)
system.mem_ctrls.wrQLenPdf::10                      1                       # What write queue length does an incoming req see (Count)
system.mem_ctrls.wrQLenPdf::11                      1                       # What write queue length does an incoming req see (Count)
system.mem_ctrls.wrQLenPdf::12                      1                       # What write queue length does an incoming req see (Count)
system.mem_ctrls.wrQLenPdf::13                      1                       # What write queue length does an incoming req see (Count)
system.mem_ctrls.wrQLenPdf::14                      1                       # What write queue length does an incoming req see (Count)
system.mem_ctrls.wrQLenPdf::15                      1                       # What write queue length does an incoming req see (Count)
system.mem_ctrls.wrQLenPdf::16                      1                       # What write queue length does an incoming req see (Count)
system.mem_ctrls.wrQLenPdf::17                 885806                       # What write queue length does an incoming req see (Count)
system.mem_ctrls.wrQLenPdf::18                 892856                       # What write queue length does an incoming req see (Count)
system.mem_ctrls.wrQLenPdf::19                 892859                       # What write queue length does an incoming req see (Count)
system.mem_ctrls.wrQLenPdf::20                 892860                       # What write queue length does an incoming req see (Count)
system.mem_ctrls.wrQLenPdf::21                 892864                       # What write queue length does an incoming req see (Count)
system.mem_ctrls.wrQLenPdf::22                 892885                       # What write queue length does an incoming req see (Count)
system.mem_ctrls.wrQLenPdf::23                 892928                       # What write queue length does an incoming req see (Count)
system.mem_ctrls.wrQLenPdf::24                 893119                       # What write queue length does an incoming req see (Count)
system.mem_ctrls.wrQLenPdf::25                 893682                       # What write queue length does an incoming req see (Count)
system.mem_ctrls.wrQLenPdf::26                 893654                       # What write queue length does an incoming req see (Count)
system.mem_ctrls.wrQLenPdf::27                 893909                       # What write queue length does an incoming req see (Count)
system.mem_ctrls.wrQLenPdf::28                 893811                       # What write queue length does an incoming req see (Count)
system.mem_ctrls.wrQLenPdf::29                 893817                       # What write queue length does an incoming req see (Count)
system.mem_ctrls.wrQLenPdf::30                 893758                       # What write queue length does an incoming req see (Count)
system.mem_ctrls.wrQLenPdf::31                 894030                       # What write queue length does an incoming req see (Count)
system.mem_ctrls.wrQLenPdf::32                 892855                       # What write queue length does an incoming req see (Count)
system.mem_ctrls.wrQLenPdf::33                      0                       # What write queue length does an incoming req see (Count)
system.mem_ctrls.wrQLenPdf::34                      0                       # What write queue length does an incoming req see (Count)
system.mem_ctrls.wrQLenPdf::35                      0                       # What write queue length does an incoming req see (Count)
system.mem_ctrls.wrQLenPdf::36                      0                       # What write queue length does an incoming req see (Count)
system.mem_ctrls.wrQLenPdf::37                      0                       # What write queue length does an incoming req see (Count)
system.mem_ctrls.wrQLenPdf::38                      0                       # What write queue length does an incoming req see (Count)
system.mem_ctrls.wrQLenPdf::39                      0                       # What write queue length does an incoming req see (Count)
system.mem_ctrls.wrQLenPdf::40                      0                       # What write queue length does an incoming req see (Count)
system.mem_ctrls.wrQLenPdf::41                      0                       # What write queue length does an incoming req see (Count)
system.mem_ctrls.wrQLenPdf::42                      0                       # What write queue length does an incoming req see (Count)
system.mem_ctrls.wrQLenPdf::43                      0                       # What write queue length does an incoming req see (Count)
system.mem_ctrls.wrQLenPdf::44                      0                       # What write queue length does an incoming req see (Count)
system.mem_ctrls.wrQLenPdf::45                      0                       # What write queue length does an incoming req see (Count)
system.mem_ctrls.wrQLenPdf::46                      0                       # What write queue length does an incoming req see (Count)
system.mem_ctrls.wrQLenPdf::47                      0                       # What write queue length does an incoming req see (Count)
system.mem_ctrls.wrQLenPdf::48                      0                       # What write queue length does an incoming req see (Count)
system.mem_ctrls.wrQLenPdf::49                      0                       # What write queue length does an incoming req see (Count)
system.mem_ctrls.wrQLenPdf::50                      0                       # What write queue length does an incoming req see (Count)
system.mem_ctrls.wrQLenPdf::51                      0                       # What write queue length does an incoming req see (Count)
system.mem_ctrls.wrQLenPdf::52                      0                       # What write queue length does an incoming req see (Count)
system.mem_ctrls.wrQLenPdf::53                      0                       # What write queue length does an incoming req see (Count)
system.mem_ctrls.wrQLenPdf::54                      0                       # What write queue length does an incoming req see (Count)
system.mem_ctrls.wrQLenPdf::55                      0                       # What write queue length does an incoming req see (Count)
system.mem_ctrls.wrQLenPdf::56                      0                       # What write queue length does an incoming req see (Count)
system.mem_ctrls.wrQLenPdf::57                      0                       # What write queue length does an incoming req see (Count)
system.mem_ctrls.wrQLenPdf::58                      0                       # What write queue length does an incoming req see (Count)
system.mem_ctrls.wrQLenPdf::59                      0                       # What write queue length does an incoming req see (Count)
system.mem_ctrls.wrQLenPdf::60                      0                       # What write queue length does an incoming req see (Count)
system.mem_ctrls.wrQLenPdf::61                      0                       # What write queue length does an incoming req see (Count)
system.mem_ctrls.wrQLenPdf::62                      0                       # What write queue length does an incoming req see (Count)
system.mem_ctrls.wrQLenPdf::63                      0                       # What write queue length does an incoming req see (Count)
system.mem_ctrls.rdPerTurnAround::samples       892855                       # Reads before turning the bus around for writes (Count)
system.mem_ctrls.rdPerTurnAround::mean      16.000021                       # Reads before turning the bus around for writes (Count)
system.mem_ctrls.rdPerTurnAround::gmean     15.999502                       # Reads before turning the bus around for writes (Count)
system.mem_ctrls.rdPerTurnAround::stdev      0.129343                       # Reads before turning the bus around for writes (Count)
system.mem_ctrls.rdPerTurnAround::14-15          7313      0.82%      0.82% # Reads before turning the bus around for writes (Count)
system.mem_ctrls.rdPerTurnAround::16-17        885539     99.18%    100.00% # Reads before turning the bus around for writes (Count)
system.mem_ctrls.rdPerTurnAround::18-19             2      0.00%    100.00% # Reads before turning the bus around for writes (Count)
system.mem_ctrls.rdPerTurnAround::32-33             1      0.00%    100.00% # Reads before turning the bus around for writes (Count)
system.mem_ctrls.rdPerTurnAround::total        892855                       # Reads before turning the bus around for writes (Count)
system.mem_ctrls.wrPerTurnAround::samples       892855                       # Writes before turning the bus around for reads (Count)
system.mem_ctrls.wrPerTurnAround::mean      16.000001                       # Writes before turning the bus around for reads (Count)
system.mem_ctrls.wrPerTurnAround::gmean     16.000001                       # Writes before turning the bus around for reads (Count)
system.mem_ctrls.wrPerTurnAround::stdev      0.001058                       # Writes before turning the bus around for reads (Count)
system.mem_ctrls.wrPerTurnAround::16           892854    100.00%    100.00% # Writes before turning the bus around for reads (Count)
system.mem_ctrls.wrPerTurnAround::17                1      0.00%    100.00% # Writes before turning the bus around for reads (Count)
system.mem_ctrls.wrPerTurnAround::total        892855                       # Writes before turning the bus around for reads (Count)
system.mem_ctrls.bytesReadWrQ                       0                       # Total number of bytes read from write queue (Byte)
system.mem_ctrls.bytesReadSys               914285504                       # Total read bytes from the system interface side (Byte)
system.mem_ctrls.bytesWrittenSys            914285440                       # Total written bytes from the system interface side (Byte)
system.mem_ctrls.avgRdBWSys              605457067.29337788                       # Average system read bandwidth in Byte/s ((Byte/Second))
system.mem_ctrls.avgWrBWSys              605457024.91137338                       # Average system write bandwidth in Byte/s ((Byte/Second))
system.mem_ctrls.totGap                  1510074844500                       # Total gap between requests (Tick)
system.mem_ctrls.avgGap                      52852.63                       # Average gap between requests ((Tick/Count))
system.mem_ctrls.requestorReadBytes::switch_cpus.data    914285504                       # Per-requestor bytes read from memory (Byte)
system.mem_ctrls.requestorWriteBytes::writebacks    914283584                       # Per-requestor bytes write to memory (Byte)
system.mem_ctrls.requestorReadRate::switch_cpus.data 605457067.293377876282                       # Per-requestor bytes read from memory rate ((Byte/Second))
system.mem_ctrls.requestorWriteRate::writebacks 605455795.833244085312                       # Per-requestor bytes write to memory rate ((Byte/Second))
system.mem_ctrls.requestorReadAccesses::switch_cpus.data     14285711                       # Per-requestor read serviced memory accesses (Count)
system.mem_ctrls.requestorWriteAccesses::writebacks     14285710                       # Per-requestor write serviced memory accesses (Count)
system.mem_ctrls.requestorReadTotalLat::switch_cpus.data 645852814500                       # Per-requestor read total memory access latency (Tick)
system.mem_ctrls.requestorWriteTotalLat::writebacks 37131538339500                       # Per-requestor write total memory access latency (Tick)
system.mem_ctrls.requestorReadAvgLat::switch_cpus.data     45209.71                       # Per-requestor read average memory access latency ((Tick/Count))
system.mem_ctrls.requestorWriteAvgLat::writebacks   2599208.46                       # Per-requestor write average memory access latency ((Tick/Count))
system.mem_ctrls.dram.bytesRead::switch_cpus.data    914285504                       # Number of bytes read from this memory (Byte)
system.mem_ctrls.dram.bytesRead::total      914285504                       # Number of bytes read from this memory (Byte)
system.mem_ctrls.dram.bytesWritten::writebacks    914285440                       # Number of bytes written to this memory (Byte)
system.mem_ctrls.dram.bytesWritten::total    914285440                       # Number of bytes written to this memory (Byte)
system.mem_ctrls.dram.numReads::switch_cpus.data     14285711                       # Number of read requests responded to by this memory (Count)
system.mem_ctrls.dram.numReads::total        14285711                       # Number of read requests responded to by this memory (Count)
system.mem_ctrls.dram.numWrites::writebacks     14285710                       # Number of write requests responded to by this memory (Count)
system.mem_ctrls.dram.numWrites::total       14285710                       # Number of write requests responded to by this memory (Count)
system.mem_ctrls.dram.bwRead::switch_cpus.data    605457067                       # Total read bandwidth from this memory ((Byte/Second))
system.mem_ctrls.dram.bwRead::total         605457067                       # Total read bandwidth from this memory ((Byte/Second))
system.mem_ctrls.dram.bwWrite::writebacks    605457025                       # Write bandwidth from this memory ((Byte/Second))
system.mem_ctrls.dram.bwWrite::total        605457025                       # Write bandwidth from this memory ((Byte/Second))
system.mem_ctrls.dram.bwTotal::writebacks    605457025                       # Total bandwidth to/from this memory ((Byte/Second))
system.mem_ctrls.dram.bwTotal::switch_cpus.data    605457067                       # Total bandwidth to/from this memory ((Byte/Second))
system.mem_ctrls.dram.bwTotal::total       1210914092                       # Total bandwidth to/from this memory ((Byte/Second))
system.mem_ctrls.dram.readBursts             14285711                       # Number of DRAM read bursts (Count)
system.mem_ctrls.dram.writeBursts            14285681                       # Number of DRAM write bursts (Count)
system.mem_ctrls.dram.perBankRdBursts::0       892800                       # Per bank write bursts (Count)
system.mem_ctrls.dram.perBankRdBursts::1       892804                       # Per bank write bursts (Count)
system.mem_ctrls.dram.perBankRdBursts::2       892928                       # Per bank write bursts (Count)
system.mem_ctrls.dram.perBankRdBursts::3       892928                       # Per bank write bursts (Count)
system.mem_ctrls.dram.perBankRdBursts::4       892928                       # Per bank write bursts (Count)
system.mem_ctrls.dram.perBankRdBursts::5       892928                       # Per bank write bursts (Count)
system.mem_ctrls.dram.perBankRdBursts::6       892928                       # Per bank write bursts (Count)
system.mem_ctrls.dram.perBankRdBursts::7       892928                       # Per bank write bursts (Count)
system.mem_ctrls.dram.perBankRdBursts::8       892928                       # Per bank write bursts (Count)
system.mem_ctrls.dram.perBankRdBursts::9       892811                       # Per bank write bursts (Count)
system.mem_ctrls.dram.perBankRdBursts::10       892800                       # Per bank write bursts (Count)
system.mem_ctrls.dram.perBankRdBursts::11       892800                       # Per bank write bursts (Count)
system.mem_ctrls.dram.perBankRdBursts::12       892800                       # Per bank write bursts (Count)
system.mem_ctrls.dram.perBankRdBursts::13       892800                       # Per bank write bursts (Count)
system.mem_ctrls.dram.perBankRdBursts::14       892800                       # Per bank write bursts (Count)
system.mem_ctrls.dram.perBankRdBursts::15       892800                       # Per bank write bursts (Count)
system.mem_ctrls.dram.perBankWrBursts::0       892800                       # Per bank write bursts (Count)
system.mem_ctrls.dram.perBankWrBursts::1       892803                       # Per bank write bursts (Count)
system.mem_ctrls.dram.perBankWrBursts::2       892928                       # Per bank write bursts (Count)
system.mem_ctrls.dram.perBankWrBursts::3       892928                       # Per bank write bursts (Count)
system.mem_ctrls.dram.perBankWrBursts::4       892928                       # Per bank write bursts (Count)
system.mem_ctrls.dram.perBankWrBursts::5       892928                       # Per bank write bursts (Count)
system.mem_ctrls.dram.perBankWrBursts::6       892928                       # Per bank write bursts (Count)
system.mem_ctrls.dram.perBankWrBursts::7       892928                       # Per bank write bursts (Count)
system.mem_ctrls.dram.perBankWrBursts::8       892910                       # Per bank write bursts (Count)
system.mem_ctrls.dram.perBankWrBursts::9       892800                       # Per bank write bursts (Count)
system.mem_ctrls.dram.perBankWrBursts::10       892800                       # Per bank write bursts (Count)
system.mem_ctrls.dram.perBankWrBursts::11       892800                       # Per bank write bursts (Count)
system.mem_ctrls.dram.perBankWrBursts::12       892800                       # Per bank write bursts (Count)
system.mem_ctrls.dram.perBankWrBursts::13       892800                       # Per bank write bursts (Count)
system.mem_ctrls.dram.perBankWrBursts::14       892800                       # Per bank write bursts (Count)
system.mem_ctrls.dram.perBankWrBursts::15       892800                       # Per bank write bursts (Count)
[...]
system.switch_cpus.commit.committedInstType_0::SimdReduceAlu            0      0.00%     42.86% # Class of committed instruction (Count)
system.switch_cpus.commit.committedInstType_0::SimdReduceCmp            0      0.00%     42.86% # Class of committed instruction (Count)
system.switch_cpus.commit.committedInstType_0::SimdFloatReduceAdd            0      0.00%     42.86% # Class of committed instruction (Count)
system.switch_cpus.commit.committedInstType_0::SimdFloatReduceCmp            0      0.00%     42.86% # Class of committed instruction (Count)
system.switch_cpus.commit.committedInstType_0::SimdAes            0      0.00%     42.86% # Class of committed instruction (Count)
system.switch_cpus.commit.committedInstType_0::SimdAesMix            0      0.00%     42.86% # Class of committed instruction (Count)
system.switch_cpus.commit.committedInstType_0::SimdSha1Hash            0      0.00%     42.86% # Class of committed instruction (Count)
system.switch_cpus.commit.committedInstType_0::SimdSha1Hash2            0      0.00%     42.86% # Class of committed instruction (Count)
system.switch_cpus.commit.committedInstType_0::SimdSha256Hash            0      0.00%     42.86% # Class of committed instruction (Count)
system.switch_cpus.commit.committedInstType_0::SimdSha256Hash2            0      0.00%     42.86% # Class of committed instruction (Count)
system.switch_cpus.commit.committedInstType_0::SimdShaSigma2            0      0.00%     42.86% # Class of committed instruction (Count)
system.switch_cpus.commit.committedInstType_0::SimdShaSigma3            0      0.00%     42.86% # Class of committed instruction (Count)
system.switch_cpus.commit.committedInstType_0::SimdPredAlu            0      0.00%     42.86% # Class of committed instruction (Count)
system.switch_cpus.commit.committedInstType_0::MemRead            0      0.00%     42.86% # Class of committed instruction (Count)
system.switch_cpus.commit.committedInstType_0::MemWrite            0      0.00%     42.86% # Class of committed instruction (Count)
system.switch_cpus.commit.committedInstType_0::FloatMemRead            0      0.00%     42.86% # Class of committed instruction (Count)
system.switch_cpus.commit.committedInstType_0::FloatMemWrite    114285712     57.14%    100.00% # Class of committed instruction (Count)
system.switch_cpus.commit.committedInstType_0::IprAccess            0      0.00%    100.00% # Class of committed instruction (Count)
system.switch_cpus.commit.committedInstType_0::InstPrefetch            0      0.00%    100.00% # Class of committed instruction (Count)
system.switch_cpus.commit.committedInstType_0::total    200000000                       # Class of committed instruction (Count)
system.switch_cpus.commit.commitEligibleSamples       892856                       # number cycles where commit BW limit reached (Cycle)
system.switch_cpus.decode.idleCycles          8705381                       # Number of cycles decode is idle (Cycle)
system.switch_cpus.decode.blockedCycles    2984435278                       # Number of cycles decode is blocked (Cycle)
system.switch_cpus.decode.runCycles           1562636                       # Number of cycles decode is running (Cycle)
system.switch_cpus.decode.unblockCycles      25223212                       # Number of cycles decode is unblocking (Cycle)
system.switch_cpus.decode.squashCycles         223232                       # Number of cycles decode is squashing (Cycle)
system.switch_cpus.decode.branchResolved     15178557                       # Number of times decode resolved a branch (Count)
system.switch_cpus.decode.decodedInsts      213839784                       # Number of instructions handled by decode (Count)
system.switch_cpus.fetch.icacheStallCycles            2                       # Number of cycles fetch is stalled on an Icache miss (Cycle)
system.switch_cpus.fetch.insts              112500479                       # Number of instructions fetch has processed (Count)
system.switch_cpus.fetch.branches            15848668                       # Number of branches that fetch encountered (Count)
system.switch_cpus.fetch.predictedBranches     15848650                       # Number of branches that fetch has predicted taken (Count)
system.switch_cpus.fetch.cycles            3019926512                       # Number of cycles fetch has run and was not squashing or blocked (Cycle)
system.switch_cpus.fetch.squashCycles          446464                       # Number of cycles fetch has spent squashing (Cycle)
system.switch_cpus.fetch.cacheLines                 1                       # Number of cache lines fetched (Count)
system.switch_cpus.fetch.nisnDist::samples   3020149746                       # Number of instructions fetched each cycle (Total) (Count)
system.switch_cpus.fetch.nisnDist::mean      0.074352                       # Number of instructions fetched each cycle (Total) (Count)
system.switch_cpus.fetch.nisnDist::stdev     0.698064                       # Number of instructions fetched each cycle (Total) (Count)
system.switch_cpus.fetch.nisnDist::underflows            0      0.00%      0.00% # Number of instructions fetched each cycle (Total) (Count)
system.switch_cpus.fetch.nisnDist::0       2980863582     98.70%     98.70% # Number of instructions fetched each cycle (Total) (Count)
system.switch_cpus.fetch.nisnDist::1              447      0.00%     98.70% # Number of instructions fetched each cycle (Total) (Count)
system.switch_cpus.fetch.nisnDist::2          7142851      0.24%     98.94% # Number of instructions fetched each cycle (Total) (Count)
system.switch_cpus.fetch.nisnDist::3                0      0.00%     98.94% # Number of instructions fetched each cycle (Total) (Count)
system.switch_cpus.fetch.nisnDist::4          7366063      0.24%     99.18% # Number of instructions fetched each cycle (Total) (Count)
system.switch_cpus.fetch.nisnDist::5                0      0.00%     99.18% # Number of instructions fetched each cycle (Total) (Count)
system.switch_cpus.fetch.nisnDist::6          8705352      0.29%     99.47% # Number of instructions fetched each cycle (Total) (Count)
system.switch_cpus.fetch.nisnDist::7                1      0.00%     99.47% # Number of instructions fetched each cycle (Total) (Count)
system.switch_cpus.fetch.nisnDist::8         16071450      0.53%    100.00% # Number of instructions fetched each cycle (Total) (Count)
system.switch_cpus.fetch.nisnDist::overflows            0      0.00%    100.00% # Number of instructions fetched each cycle (Total) (Count)
system.switch_cpus.fetch.nisnDist::min_value            0                       # Number of instructions fetched each cycle (Total) (Count)
system.switch_cpus.fetch.nisnDist::max_value            8                       # Number of instructions fetched each cycle (Total) (Count)
system.switch_cpus.fetch.nisnDist::total   3020149746                       # Number of instructions fetched each cycle (Total) (Count)
system.switch_cpus.fetch.branchRate          0.005248                       # Number of branch fetches per cycle (Ratio)
system.switch_cpus.fetch.rate                0.037250                       # Number of inst fetches per cycle ((Count/Cycle))
system.switch_cpus.iew.idleCycles                   0                       # Number of cycles IEW is idle (Cycle)
system.switch_cpus.iew.squashCycles            223232                       # Number of cycles IEW is squashing (Cycle)
system.switch_cpus.iew.blockCycles            1339318                       # Number of cycles IEW is blocking (Cycle)
system.switch_cpus.iew.unblockCycles       1513252262                       # Number of cycles IEW is unblocking (Cycle)
system.switch_cpus.iew.dispatchedInsts      212500344                       # Number of instructions dispatched to IQ (Count)
system.switch_cpus.iew.dispSquashedInsts            7                       # Number of squashed instructions skipped by dispatch (Count)
system.switch_cpus.iew.dispLoadInsts               18                       # Number of dispatched load instructions (Count)
system.switch_cpus.iew.dispStoreInsts       121428592                       # Number of dispatched store instructions (Count)
system.switch_cpus.iew.dispNonSpecInsts             0                       # Number of dispatched non-speculative instructions (Count)
system.switch_cpus.iew.iqFullEvents                 0                       # Number of times the IQ has become full, causing a stall (Count)
system.switch_cpus.iew.lsqFullEvents       1513475477                       # Number of times the LSQ has become full, causing a stall (Count)
system.switch_cpus.iew.memOrderViolationEvents            0                       # Number of memory order violations (Count)
system.switch_cpus.iew.predictedTakenIncorrect           22                       # Number of branches that were predicted taken incorrectly (Count)
system.switch_cpus.iew.predictedNotTakenIncorrect           18                       # Number of branches that were predicted not taken incorrectly (Count)
system.switch_cpus.iew.branchMispredicts           40                       # Number of branch mispredicts detected at execute (Count)
system.switch_cpus.iew.instsToCommit        212500242                       # Cumulative count of insts sent to commit (Count)
system.switch_cpus.iew.writebackCount       205803792                       # Cumulative count of insts written-back (Count)
system.switch_cpus.iew.producerInst          73437532                       # Number of instructions producing a value (Count)
system.switch_cpus.iew.consumerInst          94419747                       # Number of instructions consuming a value (Count)
system.switch_cpus.iew.wbRate                0.068144                       # Insts written-back per cycle ((Count/Cycle))
system.switch_cpus.iew.wbFanout              0.777777                       # Average fanout of values written-back ((Count/Count))
system.switch_cpus.lsq0.forwLoads                   0                       # Number of loads that had data forwarded from stores (Count)
system.switch_cpus.lsq0.squashedLoads              18                       # Number of loads squashed (Count)
system.switch_cpus.lsq0.ignoredResponses            0                       # Number of memory responses ignored because the instruction is squashed (Count)
system.switch_cpus.lsq0.memOrderViolation            0                       # Number of memory ordering violations (Count)
system.switch_cpus.lsq0.squashedStores        7142880                       # Number of stores squashed (Count)
system.switch_cpus.lsq0.rescheduledLoads            0                       # Number of loads that were rescheduled (Count)
system.switch_cpus.lsq0.blockedByCache              0                       # Number of times an access to memory failed due to the cache being blocked (Count)
system.switch_cpus.mmu.dtb.rdAccesses              18                       # TLB accesses on read requests (Count)
system.switch_cpus.mmu.dtb.wrAccesses       121428592                       # TLB accesses on write requests (Count)
system.switch_cpus.mmu.dtb.rdMisses                 1                       # TLB misses on read requests (Count)
system.switch_cpus.mmu.dtb.wrMisses           6919666                       # TLB misses on write requests (Count)
system.switch_cpus.mmu.dtb.walker.power_state.pwrStateResidencyTicks::UNDEFINED 1631278565000                       # Cumulative time (in ticks) in various power states (Tick)
system.switch_cpus.mmu.itb.rdAccesses               0                       # TLB accesses on read requests (Count)
system.switch_cpus.mmu.itb.wrAccesses               1                       # TLB accesses on write requests (Count)
system.switch_cpus.mmu.itb.rdMisses                 0                       # TLB misses on read requests (Count)
system.switch_cpus.mmu.itb.wrMisses                 1                       # TLB misses on write requests (Count)
system.switch_cpus.mmu.itb.walker.power_state.pwrStateResidencyTicks::UNDEFINED 1631278565000                       # Cumulative time (in ticks) in various power states (Tick)
system.switch_cpus.power_state.pwrStateResidencyTicks::OFF 1631278565000                       # Cumulative time (in ticks) in various power states (Tick)
system.switch_cpus.rename.squashCycles         223232                       # Number of cycles rename is squashing (Cycle)
system.switch_cpus.rename.idleCycles         17187536                       # Number of cycles rename is idle (Cycle)
system.switch_cpus.rename.blockCycles      1514591580                       # Number of cycles rename is blocking (Cycle)
system.switch_cpus.rename.serializeStallCycles            0                       # count of cycles rename stalled for serializing inst (Cycle)
system.switch_cpus.rename.runCycles          18080472                       # Number of cycles rename is running (Cycle)
system.switch_cpus.rename.unblockCycles    1470066920                       # Number of cycles rename is unblocking (Cycle)
system.switch_cpus.rename.renamedInsts      212723683                       # Number of instructions processed by rename (Count)
system.switch_cpus.rename.SQFullEvents     1470066911                       # Number of times rename has blocked due to SQ full (Count)
system.switch_cpus.rename.renamedOperands    136607207                       # Number of destination operands rename has renamed (Count)
system.switch_cpus.rename.lookups           683929557                       # Number of register rename lookups that rename has made (Count)
system.switch_cpus.rename.intLookups        334375508                       # Number of integer rename lookups (Count)
system.switch_cpus.rename.fpLookups         121651807                       # Number of floating rename lookups (Count)
system.switch_cpus.rename.committedMaps     128571431                       # Number of HB maps that are committed (Count)
system.switch_cpus.rename.undoneMaps          8035776                       # Number of HB maps that are undone due to squashing (Count)
system.switch_cpus.rename.serializing               0                       # count of serializing insts renamed (Count)
system.switch_cpus.rename.tempSerializing            0                       # count of temporary serializing insts renamed (Count)
system.switch_cpus.rename.skidInsts         167410657                       # count of insts added to the skid buffer (Count)
system.switch_cpus.rob.reads               3225730342                       # The number of ROB reads (Count)
system.switch_cpus.rob.writes               423438145                       # The number of ROB writes (Count)
system.switch_cpus.thread_0.numInsts        100000000                       # Number of Instructions committed (Count)
system.switch_cpus.thread_0.numOps          200000000                       # Number of Ops committed (Count)
system.switch_cpus.thread_0.numMemRefs              0                       # Number of Memory References (Count)
system.tol2bus.transDist::ReadResp                  1                       # Transaction distribution (Count)
system.tol2bus.transDist::WritebackDirty     28571420                       # Transaction distribution (Count)
system.tol2bus.transDist::CleanEvict              377                       # Transaction distribution (Count)
system.tol2bus.transDist::ReadExReq          14285711                       # Transaction distribution (Count)
system.tol2bus.transDist::ReadExResp         14285710                       # Transaction distribution (Count)
system.tol2bus.transDist::ReadSharedReq             1                       # Transaction distribution (Count)
system.tol2bus.pktCount_system.cpu.dcache.mem_side_port::system.l2.cpu_side_port     42857134                       # Packet count per connected requestor and responder (Count)
system.tol2bus.pktCount::total               42857134                       # Packet count per connected requestor and responder (Count)
system.tol2bus.pktSize_system.cpu.dcache.mem_side_port::system.l2.cpu_side_port   1828570944                       # Cumulative packet size per connected requestor and responder (Byte)
system.tol2bus.pktSize::total              1828570944                       # Cumulative packet size per connected requestor and responder (Byte)
system.tol2bus.snoops                        14286086                       # Total snoops (Count)
system.tol2bus.snoopTraffic                 914285440                       # Total snoop traffic (Byte)
system.tol2bus.snoopFanout::samples          28571798                       # Request fanout histogram (Count)
system.tol2bus.snoopFanout::mean             0.000013                       # Request fanout histogram (Count)
system.tol2bus.snoopFanout::stdev            0.003623                       # Request fanout histogram (Count)
system.tol2bus.snoopFanout::underflows              0      0.00%      0.00% # Request fanout histogram (Count)
system.tol2bus.snoopFanout::0                28571423    100.00%    100.00% # Request fanout histogram (Count)
system.tol2bus.snoopFanout::1                     375      0.00%    100.00% # Request fanout histogram (Count)
system.tol2bus.snoopFanout::2                       0      0.00%    100.00% # Request fanout histogram (Count)
system.tol2bus.snoopFanout::3                       0      0.00%    100.00% # Request fanout histogram (Count)
system.tol2bus.snoopFanout::4                       0      0.00%    100.00% # Request fanout histogram (Count)
system.tol2bus.snoopFanout::overflows               0      0.00%    100.00% # Request fanout histogram (Count)
system.tol2bus.snoopFanout::min_value               0                       # Request fanout histogram (Count)
system.tol2bus.snoopFanout::max_value               1                       # Request fanout histogram (Count)
system.tol2bus.snoopFanout::total            28571798                       # Request fanout histogram (Count)
system.tol2bus.power_state.pwrStateResidencyTicks::UNDEFINED 1631278565000                       # Cumulative time (in ticks) in various power states (Tick)
system.tol2bus.reqLayer0.occupancy        28571421500                       # Layer occupancy (ticks) (Tick)
system.tol2bus.reqLayer0.utilization              0.0                       # Layer utilization (Ratio)
system.tol2bus.respLayer1.occupancy       21428566500                       # Layer occupancy (ticks) (Tick)
system.tol2bus.respLayer1.utilization             0.0                       # Layer utilization (Ratio)
system.tol2bus.snoop_filter.totRequests      28571423                       # Total number of requests made to the snoop filter. (Count)
system.tol2bus.snoop_filter.hitSingleRequests     14285711                       # Number of requests hitting in the snoop filter with a single holder of the requested data. (Count)
system.tol2bus.snoop_filter.hitMultiRequests            0                       # Number of requests hitting in the snoop filter with multiple (>1) holders of the requested data. (Count)
system.tol2bus.snoop_filter.totSnoops             375                       # Total number of snoops made to the snoop filter. (Count)
system.tol2bus.snoop_filter.hitSingleSnoops          375                       # Number of snoops hitting in the snoop filter with a single holder of the requested data. (Count)
system.tol2bus.snoop_filter.hitMultiSnoops            0                       # Number of snoops hitting in the snoop filter with multiple (>1) holders of the requested data. (Count)
system.voltage_domain.voltage                       1                       # Voltage in Volts (Volt)
system.workload.inst.arm                            0                       # number of arm instructions executed (Count)
system.workload.inst.quiesce                        0                       # number of quiesce instructions executed (Count)

---------- End Simulation Statistics   ----------
