
---------- Begin Simulation Statistics ----------
simSeconds                                   0.143058                       # Number of seconds simulated (Second)
simTicks                                 143058328500                       # Number of ticks simulated (Tick)
finalTick                                234519019000                       # Number of ticks from beginning of simulation (restored from checkpoints and never reset) (Tick)
simFreq                                  1000000000000                       # The number of ticks per simulated second ((Tick/Second))
hostSeconds                                   1265.78                       # Real time elapsed on the host (Second)
hostTickRate                                113019804                       # The number of ticks simulated per host second (ticks/s) ((Tick/Second))
hostMemory                                    8569204                       # Number of bytes of host memory used (Byte)
simInsts                                    200000001                       # Number of instructions simulated (Count)
simOps                                      279845218                       # Number of ops (including micro ops) simulated (Count)
hostInstRate                                   158005                       # Simulator instruction rate (inst/s) ((Count/Second))
hostOpRate                                     221085                       # Simulator op (including micro ops) rate (op/s) ((Count/Second))
system.clk_domain.clock                          1000                       # Clock period in ticks (Tick)
system.cpu.numCycles                                0                       # Number of cpu cycles simulated (Cycle)
system.cpu.numWorkItemsStarted                      0                       # Number of work items this cpu started (Count)
system.cpu.numWorkItemsCompleted                    0                       # Number of work items this cpu completed (Count)
system.cpu.dcache.demandHits::switch_cpus.data     36605199                       # number of demand (read+write) hits (Count)
system.cpu.dcache.demandHits::total          36605199                       # number of demand (read+write) hits (Count)
system.cpu.dcache.overallHits::switch_cpus.data     36605199                       # number of overall hits (Count)
system.cpu.dcache.overallHits::total         36605199                       # number of overall hits (Count)
system.cpu.dcache.demandMisses::switch_cpus.data      1533739                       # number of demand (read+write) misses (Count)
system.cpu.dcache.demandMisses::total         1533739                       # number of demand (read+write) misses (Count)
system.cpu.dcache.overallMisses::switch_cpus.data      1533739                       # number of overall misses (Count)
system.cpu.dcache.overallMisses::total        1533739                       # number of overall misses (Count)
system.cpu.dcache.demandMissLatency::switch_cpus.data 127599118500                       # number of demand (read+write) miss ticks (Tick)
system.cpu.dcache.demandMissLatency::total 127599118500                       # number of demand (read+write) miss ticks (Tick)
system.cpu.dcache.overallMissLatency::switch_cpus.data 127599118500                       # number of overall miss ticks (Tick)
system.cpu.dcache.overallMissLatency::total 127599118500                       # number of overall miss ticks (Tick)
system.cpu.dcache.demandAccesses::switch_cpus.data     38138938                       # number of demand (read+write) accesses (Count)
system.cpu.dcache.demandAccesses::total      38138938                       # number of demand (read+write) accesses (Count)
system.cpu.dcache.overallAccesses::switch_cpus.data     38138938                       # number of overall (read+write) accesses (Count)
system.cpu.dcache.overallAccesses::total     38138938                       # number of overall (read+write) accesses (Count)
system.cpu.dcache.demandMissRate::switch_cpus.data     0.040215                       # miss rate for demand accesses (Ratio)
system.cpu.dcache.demandMissRate::total      0.040215                       # miss rate for demand accesses (Ratio)
system.cpu.dcache.overallMissRate::switch_cpus.data     0.040215                       # miss rate for overall accesses (Ratio)
system.cpu.dcache.overallMissRate::total     0.040215                       # miss rate for overall accesses (Ratio)
system.cpu.dcache.demandAvgMissLatency::switch_cpus.data 83194.805961                       # average overall miss latency ((Cycle/Count))
system.cpu.dcache.demandAvgMissLatency::total 83194.805961                       # average overall miss latency ((Cycle/Count))
system.cpu.dcache.overallAvgMissLatency::switch_cpus.data 83194.805961                       # average overall miss latency ((Cycle/Count))
system.cpu.dcache.overallAvgMissLatency::total 83194.805961                       # average overall miss latency ((Cycle/Count))
system.cpu.dcache.blockedCycles::no_mshrs            0                       # number of cycles access was blocked (Cycle)
system.cpu.dcache.blockedCycles::no_targets            0                       # number of cycles access was blocked (Cycle)
system.cpu.dcache.blockedCauses::no_mshrs            0                       # number of times access was blocked (Count)
system.cpu.dcache.blockedCauses::no_targets            0                       # number of times access was blocked (Count)
system.cpu.dcache.avgBlocked::no_mshrs            nan                       # average number of cycles each access was blocked ((Cycle/Count))
system.cpu.dcache.avgBlocked::no_targets          nan                       # average number of cycles each access was blocked ((Cycle/Count))
system.cpu.dcache.writebacks::writebacks      1533738                       # number of writebacks (Count)
system.cpu.dcache.writebacks::total           1533738                       # number of writebacks (Count)
system.cpu.dcache.demandMshrMisses::switch_cpus.data      1533739                       # number of demand (read+write) MSHR misses (Count)
system.cpu.dcache.demandMshrMisses::total      1533739                       # number of demand (read+write) MSHR misses (Count)
system.cpu.dcache.overallMshrMisses::switch_cpus.data      1533739                       # number of overall MSHR misses (Count)
system.cpu.dcache.overallMshrMisses::total      1533739                       # number of overall MSHR misses (Count)
system.cpu.dcache.demandMshrMissLatency::switch_cpus.data 126065380500                       # number of demand (read+write) MSHR miss ticks (Tick)
system.cpu.dcache.demandMshrMissLatency::total 126065380500                       # number of demand (read+write) MSHR miss ticks (Tick)
system.cpu.dcache.overallMshrMissLatency::switch_cpus.data 126065380500                       # number of overall MSHR miss ticks (Tick)
system.cpu.dcache.overallMshrMissLatency::total 126065380500                       # number of overall MSHR miss ticks (Tick)
system.cpu.dcache.demandMshrMissRate::switch_cpus.data     0.040215                       # mshr miss ratio for demand accesses (Ratio)
system.cpu.dcache.demandMshrMissRate::total     0.040215                       # mshr miss ratio for demand accesses (Ratio)
system.cpu.dcache.overallMshrMissRate::switch_cpus.data     0.040215                       # mshr miss ratio for overall accesses (Ratio)
system.cpu.dcache.overallMshrMissRate::total     0.040215                       # mshr miss ratio for overall accesses (Ratio)
system.cpu.dcache.demandAvgMshrMissLatency::switch_cpus.data 82194.806613                       # average overall mshr miss latency ((Cycle/Count))
system.cpu.dcache.demandAvgMshrMissLatency::total 82194.806613                       # average overall mshr miss latency ((Cycle/Count))
system.cpu.dcache.overallAvgMshrMissLatency::switch_cpus.data 82194.806613                       # average overall mshr miss latency ((Cycle/Count))
system.cpu.dcache.overallAvgMshrMissLatency::total 82194.806613                       # average overall mshr miss latency ((Cycle/Count))
system.cpu.dcache.replacements                1533738                       # number of replacements (Count)
system.cpu.dcache.ReadReq.hits::switch_cpus.data     24642034                       # number of ReadReq hits (Count)
system.cpu.dcache.ReadReq.hits::total        24642034                       # number of ReadReq hits (Count)
system.cpu.dcache.ReadReq.accesses::switch_cpus.data     24642034                       # number of ReadReq accesses(hits+misses) (Count)
system.cpu.dcache.ReadReq.accesses::total     24642034                       # number of ReadReq accesses(hits+misses) (Count)
system.cpu.dcache.WriteReq.hits::switch_cpus.data     11963165                       # number of WriteReq hits (Count)
system.cpu.dcache.WriteReq.hits::total       11963165                       # number of WriteReq hits (Count)
system.cpu.dcache.WriteReq.misses::switch_cpus.data      1533739                       # number of WriteReq misses (Count)
system.cpu.dcache.WriteReq.misses::total      1533739                       # number of WriteReq misses (Count)
system.cpu.dcache.WriteReq.missLatency::switch_cpus.data 127599118500                       # number of WriteReq miss ticks (Tick)
system.cpu.dcache.WriteReq.missLatency::total 127599118500                       # number of WriteReq miss ticks (Tick)
system.cpu.dcache.WriteReq.accesses::switch_cpus.data     13496904                       # number of WriteReq accesses(hits+misses) (Count)
system.cpu.dcache.WriteReq.accesses::total     13496904                       # number of WriteReq accesses(hits+misses) (Count)
system.cpu.dcache.WriteReq.missRate::switch_cpus.data     0.113636                       # miss rate for WriteReq accesses (Ratio)
system.cpu.dcache.WriteReq.missRate::total     0.113636                       # miss rate for WriteReq accesses (Ratio)
system.cpu.dcache.WriteReq.avgMissLatency::switch_cpus.data 83194.805961                       # average WriteReq miss latency ((Tick/Count))
system.cpu.dcache.WriteReq.avgMissLatency::total 83194.805961                       # average WriteReq miss latency ((Tick/Count))
system.cpu.dcache.WriteReq.mshrMisses::switch_cpus.data      1533739                       # number of WriteReq MSHR misses (Count)
system.cpu.dcache.WriteReq.mshrMisses::total      1533739                       # number of WriteReq MSHR misses (Count)
system.cpu.dcache.WriteReq.mshrMissLatency::switch_cpus.data 126065380500                       # number of WriteReq MSHR miss ticks (Tick)
system.cpu.dcache.WriteReq.mshrMissLatency::total 126065380500                       # number of WriteReq MSHR miss ticks (Tick)
system.cpu.dcache.WriteReq.mshrMissRate::switch_cpus.data     0.113636                       # mshr miss rate for WriteReq accesses (Ratio)
system.cpu.dcache.WriteReq.mshrMissRate::total     0.113636                       # mshr miss rate for WriteReq accesses (Ratio)
system.cpu.dcache.WriteReq.avgMshrMissLatency::switch_cpus.data 82194.806613                       # average WriteReq mshr miss latency ((Tick/Count))
system.cpu.dcache.WriteReq.avgMshrMissLatency::total 82194.806613                       # average WriteReq mshr miss latency ((Tick/Count))
system.cpu.dcache.power_state.pwrStateResidencyTicks::UNDEFINED 234519019000                       # Cumulative time (in ticks) in various power states (Tick)
system.cpu.dcache.tags.tagsInUse                 1024                       # Average ticks per tags in use ((Tick/Count))
system.cpu.dcache.tags.totalRefs             77330600                       # Total number of references to valid blocks. (Count)
system.cpu.dcache.tags.sampledRefs            1534762                       # Sample count of references to valid blocks. (Count)
system.cpu.dcache.tags.avgRefs              50.386053                       # Average number of references to valid blocks. ((Count/Count))
system.cpu.dcache.tags.warmupTick                   0                       # The tick when the warmup percentage was hit. (Tick)
system.cpu.dcache.tags.occupancies::cpu.data     3.338293                       # Average occupied blocks per tick, per requestor ((Count/Tick))
system.cpu.dcache.tags.occupancies::switch_cpus.data  1020.661707                       # Average occupied blocks per tick, per requestor ((Count/Tick))
system.cpu.dcache.tags.avgOccs::cpu.data     0.003260                       # Average percentage of cache occupancy ((Ratio/Tick))
system.cpu.dcache.tags.avgOccs::switch_cpus.data     0.996740                       # Average percentage of cache occupancy ((Ratio/Tick))
system.cpu.dcache.tags.avgOccs::total               1                       # Average percentage of cache occupancy ((Ratio/Tick))
system.cpu.dcache.tags.occupanciesTaskId::1024         1024                       # Occupied blocks per task id (Count)
system.cpu.dcache.tags.ageTaskId_1024::0          105                       # Occupied blocks per task id, per block age (Count)
system.cpu.dcache.tags.ageTaskId_1024::1          916                       # Occupied blocks per task id, per block age (Count)
system.cpu.dcache.tags.ageTaskId_1024::4            3                       # Occupied blocks per task id, per block age (Count)
system.cpu.dcache.tags.ratioOccsTaskId::1024            1                       # Ratio of occupied blocks and all blocks, per task id (Ratio)
system.cpu.dcache.tags.tagAccesses          154089490                       # Number of tag accesses (Count)
system.cpu.dcache.tags.dataAccesses         154089490                       # Number of data accesses (Count)
system.cpu.dcache.tags.power_state.pwrStateResidencyTicks::UNDEFINED 234519019000                       # Cumulative time (in ticks) in various power states (Tick)
system.cpu.dtb_walker_cache.blockedCycles::no_mshrs            0                       # number of cycles access was blocked (Cycle)
system.cpu.dtb_walker_cache.blockedCycles::no_targets            0                       # number of cycles access was blocked (Cycle)
system.cpu.dtb_walker_cache.blockedCauses::no_mshrs            0                       # number of times access was blocked (Count)
system.cpu.dtb_walker_cache.blockedCauses::no_targets            0                       # number of times access was blocked (Count)
system.cpu.dtb_walker_cache.avgBlocked::no_mshrs          nan                       # average number of cycles each access was blocked ((Cycle/Count))
system.cpu.dtb_walker_cache.avgBlocked::no_targets          nan                       # average number of cycles each access was blocked ((Cycle/Count))
system.cpu.dtb_walker_cache.replacements            0                       # number of replacements (Count)
system.cpu.dtb_walker_cache.power_state.pwrStateResidencyTicks::UNDEFINED 234519019000                       # Cumulative time (in ticks) in various power states (Tick)
system.cpu.dtb_walker_cache.tags.tagsInUse            0                       # Average ticks per tags in use ((Tick/Count))
system.cpu.dtb_walker_cache.tags.totalRefs            0                       # Total number of references to valid blocks. (Count)
system.cpu.dtb_walker_cache.tags.sampledRefs            0                       # Sample count of references to valid blocks. (Count)
system.cpu.dtb_walker_cache.tags.avgRefs          nan                       # Average number of references to valid blocks. ((Count/Count))
system.cpu.dtb_walker_cache.tags.warmupTick            0                       # The tick when the warmup percentage was hit. (Tick)
system.cpu.dtb_walker_cache.tags.tagAccesses            0                       # Number of tag accesses (Count)
system.cpu.dtb_walker_cache.tags.dataAccesses            0                       # Number of data accesses (Count)
system.cpu.dtb_walker_cache.tags.power_state.pwrStateResidencyTicks::UNDEFINED 234519019000                       # Cumulative time (in ticks) in various power states (Tick)
system.cpu.exec_context.thread_0.numInsts            0                       # Number of instructions committed (Count)
system.cpu.exec_context.thread_0.numOps             0                       # Number of ops (including micro ops) committed (Count)
system.cpu.exec_context.thread_0.numIntAluAccesses            0                       # Number of integer alu accesses (Count)
system.cpu.exec_context.thread_0.numFpAluAccesses            0                       # Number of float alu accesses (Count)
system.cpu.exec_context.thread_0.numVecAluAccesses            0                       # Number of vector alu accesses (Count)
system.cpu.exec_context.thread_0.numCallsReturns            0                       # Number of times a function call or return occured (Count)
system.cpu.exec_context.thread_0.numCondCtrlInsts            0                       # Number of instructions that are conditional controls (Count)
system.cpu.exec_context.thread_0.numIntInsts            0                       # Number of integer instructions (Count)
system.cpu.exec_context.thread_0.numFpInsts            0                       # Number of float instructions (Count)
system.cpu.exec_context.thread_0.numVecInsts            0                       # Number of vector instructions (Count)
system.cpu.exec_context.thread_0.numIntRegReads            0                       # Number of times the integer registers were read (Count)
system.cpu.exec_context.thread_0.numIntRegWrites            0                       # Number of times the integer registers were written (Count)
system.cpu.exec_context.thread_0.numFpRegReads            0                       # Number of times the floating registers were read (Count)
system.cpu.exec_context.thread_0.numFpRegWrites            0                       # Number of times the floating registers were written (Count)
system.cpu.exec_context.thread_0.numVecRegReads            0                       # Number of times the vector registers were read (Count)
system.cpu.exec_context.thread_0.numVecRegWrites            0                       # Number of times the vector registers were written (Count)
system.cpu.exec_context.thread_0.numVecPredRegReads            0                       # Number of times the predicate registers were read (Count)
system.cpu.exec_context.thread_0.numVecPredRegWrites            0                       # Number of times the predicate registers were written (Count)
system.cpu.exec_context.thread_0.numMiscRegReads            0                       # Number of times the Misc registers were read (Count)
system.cpu.exec_context.thread_0.numMiscRegWrites            0                       # Number of times the Misc registers were written (Count)
system.cpu.exec_context.thread_0.numMemRefs            0                       # Number of memory refs (Count)
system.cpu.exec_context.thread_0.numLoadInsts            0                       # Number of load instructions (Count)
system.cpu.exec_context.thread_0.numStoreInsts            0                       # Number of store instructions (Count)
system.cpu.exec_context.thread_0.numIdleCycles            0                       # Number of idle cycles (Cycle)
system.cpu.exec_context.thread_0.numBusyCycles            0                       # Number of busy cycles (Cycle)
system.cpu.exec_context.thread_0.notIdleFraction            1                       # Percentage of non-idle cycles (Ratio)
system.cpu.exec_context.thread_0.idleFraction            0                       # Percentage of idle cycles (Ratio)
system.cpu.exec_context.thread_0.statExecutedInstType::No_OpClass            0                       # Class of executed instruction. (Count)
system.cpu.exec_context.thread_0.statExecutedInstType::IntAlu            0                       # Class of executed instruction. (Count)
system.cpu.exec_context.thread_0.statExecutedInstType::IntMult            0                       # Class of executed instruction. (Count)
system.cpu.exec_context.thread_0.statExecutedInstType::IntDiv            0                       # Class of executed instruction. (Count)
system.cpu.exec_context.thread_0.statExecutedInstType::FloatAdd            0                       # Class of executed instruction. (Count)
system.cpu.exec_context.thread_0.statExecutedInstType::FloatCmp            0                       # Class of executed instruction. (Count)
system.cpu.exec_context.thread_0.statExecutedInstType::FloatCvt            0                       # Class of executed instruction. (Count)
system.cpu.exec_context.thread_0.statExecutedInstType::FloatMult            0                       # Class of executed instruction. (Count)
system.cpu.exec_context.thread_0.statExecutedInstType::FloatMultAcc            0                       # Class of executed instruction. (Count)
system.cpu.exec_context.thread_0.statExecutedInstType::FloatDiv            0                       # Class of executed instruction. (Count)
system.cpu.exec_context.thread_0.statExecutedInstType::FloatMisc            0                       # Class of executed instruction. (Count)
system.cpu.exec_context.thread_0.statExecutedInstType::FloatSqrt            0                       # Class of executed instruction. (Count)
system.cpu.exec_context.thread_0.statExecutedInstType::SimdAdd            0                       # Class of executed instruction. (Count)
system.cpu.exec_context.thread_0.statExecutedInstType::SimdAddAcc            0                       # Class of executed instruction. (Count)
system.cpu.exec_context.thread_0.statExecutedInstType::SimdAlu            0                       # Class of executed instruction. (Count)
system.cpu.exec_context.thread_0.statExecutedInstType::SimdCmp            0                       # Class of executed instruction. (Count)
system.cpu.exec_context.thread_0.statExecutedInstType::SimdCvt            0                       # Class of executed instruction. (Count)
system.cpu.exec_context.thread_0.statExecutedInstType::SimdMisc            0                       # Class of executed instruction. (Count)
system.cpu.exec_context.thread_0.statExecutedInstType::SimdMult            0                       # Class of executed instruction. (Count)
system.cpu.exec_context.thread_0.statExecutedInstType::SimdMultAcc            0                       # Class of executed instruction. (Count)
system.cpu.exec_context.thread_0.statExecutedInstType::SimdShift            0                       # Class of executed instruction. (Count)
system.cpu.exec_context.thread_0.statExecutedInstType::SimdShiftAcc            0                       # Class of executed instruction. (Count)
system.cpu.exec_context.thread_0.statExecutedInstType::SimdDiv            0                       # Class of executed instruction. (Count)
system.cpu.exec_context.thread_0.statExecutedInstType::SimdSqrt            0                       # Class of executed instruction. (Count)
system.cpu.exec_context.thread_0.statExecutedInstType::SimdFloatAdd            0                       # Class of executed instruction. (Count)
system.cpu.exec_context.thread_0.statExecutedInstType::SimdFloatAlu            0                       # Class of executed instruction. (Count)
system.cpu.exec_context.thread_0.statExecutedInstType::SimdFloatCmp            0                       # Class of executed instruction. (Count)
system.cpu.exec_context.thread_0.statExecutedInstType::SimdFloatCvt            0                       # Class of executed instruction. (Count)
system.cpu.exec_context.thread_0.statExecutedInstType::SimdFloatDiv            0                       # Class of executed instruction. (Count)
system.cpu.exec_context.thread_0.statExecutedInstType::SimdFloatMisc            0                       # Class of executed instruction. (Count)
system.cpu.exec_context.thread_0.statExecutedInstType::SimdFloatMult            0                       # Class of executed instruction. (Count)
system.cpu.exec_context.thread_0.statExecutedInstType::SimdFloatMultAcc            0                       # Class of executed instruction. (Count)
system.cpu.exec_context.thread_0.statExecutedInstType::SimdFloatSqrt            0                       # Class of executed instruction. (Count)
system.cpu.exec_context.thread_0.statExecutedInstType::SimdReduceAdd            0                       # Class of executed instruction. (Count)
system.cpu.exec_context.thread_0.statExecutedInstType::SimdReduceAlu            0                       # Class of executed instruction. (Count)
system.cpu.exec_context.thread_0.statExecutedInstType::SimdReduceCmp            0                       # Class of executed instruction. (Count)
system.cpu.exec_context.thread_0.statExecutedInstType::SimdFloatReduceAdd            0                       # Class of executed instruction. (Count)
system.cpu.exec_context.thread_0.statExecutedInstType::SimdFloatReduceCmp            0                       # Class of executed instruction. (Count)
system.cpu.exec_context.thread_0.statExecutedInstType::SimdAes            0                       # Class of executed instruction. (Count)
system.cpu.exec_context.thread_0.statExecutedInstType::SimdAesMix            0                       # Class of executed instruction. (Count)
system.cpu.exec_context.thread_0.statExecutedInstType::SimdSha1Hash            0                       # Class of executed instruction. (Count)
system.cpu.exec_context.thread_0.statExecutedInstType::SimdSha1Hash2            0                       # Class of executed instruction. (Count)
system.cpu.exec_context.thread_0.statExecutedInstType::SimdSha256Hash            0                       # Class of executed instruction. (Count)
system.cpu.exec_context.thread_0.statExecutedInstType::SimdSha256Hash2            0                       # Class of executed instruction. (Count)
system.cpu.exec_context.thread_0.statExecutedInstType::SimdShaSigma2            0                       # Class of executed instruction. (Count)
system.cpu.exec_context.thread_0.statExecutedInstType::SimdShaSigma3            0                       # Class of executed instruction. (Count)
system.cpu.exec_context.thread_0.statExecutedInstType::SimdPredAlu            0                       # Class of executed instruction. (Count)
system.cpu.exec_context.thread_0.statExecutedInstType::MemRead            0                       # Class of executed instruction. (Count)
system.cpu.exec_context.thread_0.statExecutedInstType::MemWrite            0                       # Class of executed instruction. (Count)
system.cpu.exec_context.thread_0.statExecutedInstType::FloatMemRead            0                       # Class of executed instruction. (Count)
system.cpu.exec_context.thread_0.statExecutedInstType::FloatMemWrite            0                       # Class of executed instruction. (Count)
system.cpu.exec_context.thread_0.statExecutedInstType::IprAccess            0                       # Class of executed instruction. (Count)
system.cpu.exec_context.thread_0.statExecutedInstType::InstPrefetch            0                       # Class of executed instruction. (Count)
system.cpu.exec_context.thread_0.statExecutedInstType::total            0                       # Class of executed instruction. (Count)
system.cpu.icache.demandHits::switch_cpus.inst      8246419                       # number of demand (read+write) hits (Count)
system.cpu.icache.demandHits::total           8246419                       # number of demand (read+write) hits (Count)
system.cpu.icache.overallHits::switch_cpus.inst      8246419                       # number of overall hits (Count)
system.cpu.icache.overallHits::total          8246419                       # number of overall hits (Count)
system.cpu.icache.demandAccesses::switch_cpus.inst      8246419                       # number of demand (read+write) accesses (Count)
system.cpu.icache.demandAccesses::total       8246419                       # number of demand (read+write) accesses (Count)
system.cpu.icache.overallAccesses::switch_cpus.inst      8246419                       # number of overall (read+write) accesses (Count)
system.cpu.icache.overallAccesses::total      8246419                       # number of overall (read+write) accesses (Count)
system.cpu.icache.blockedCycles::no_mshrs            0                       # number of cycles access was blocked (Cycle)
system.cpu.icache.blockedCycles::no_targets            0                       # number of cycles access was blocked (Cycle)
system.cpu.icache.blockedCauses::no_mshrs            0                       # number of times access was blocked (Count)
system.cpu.icache.blockedCauses::no_targets            0                       # number of times access was blocked (Count)
system.cpu.icache.avgBlocked::no_mshrs            nan                       # average number of cycles each access was blocked ((Cycle/Count))
system.cpu.icache.avgBlocked::no_targets          nan                       # average number of cycles each access was blocked ((Cycle/Count))
system.cpu.icache.replacements                      0                       # number of replacements (Count)
system.cpu.icache.ReadReq.hits::switch_cpus.inst      8246419                       # number of ReadReq hits (Count)
system.cpu.icache.ReadReq.hits::total         8246419                       # number of ReadReq hits (Count)
system.cpu.icache.ReadReq.accesses::switch_cpus.inst      8246419                       # number of ReadReq accesses(hits+misses) (Count)
system.cpu.icache.ReadReq.accesses::total      8246419                       # number of ReadReq accesses(hits+misses) (Count)
system.cpu.icache.power_state.pwrStateResidencyTicks::UNDEFINED 234519019000                       # Cumulative time (in ticks) in various power states (Tick)
system.cpu.icache.tags.tagsInUse                  853                       # Average ticks per tags in use ((Tick/Count))
system.cpu.icache.tags.totalRefs            151150405                       # Total number of references to valid blocks. (Count)
system.cpu.icache.tags.sampledRefs                853                       # Sample count of references to valid blocks. (Count)
system.cpu.icache.tags.avgRefs           177198.599062                       # Average number of references to valid blocks. ((Count/Count))
system.cpu.icache.tags.warmupTick                   0                       # The tick when the warmup percentage was hit. (Tick)
system.cpu.icache.tags.occupancies::cpu.inst          853                       # Average occupied blocks per tick, per requestor ((Count/Tick))
system.cpu.icache.tags.avgOccs::cpu.inst     0.833008                       # Average percentage of cache occupancy ((Ratio/Tick))
system.cpu.icache.tags.avgOccs::total        0.833008                       # Average percentage of cache occupancy ((Ratio/Tick))
system.cpu.icache.tags.occupanciesTaskId::1024          853                       # Occupied blocks per task id (Count)
system.cpu.icache.tags.ageTaskId_1024::4          853                       # Occupied blocks per task id, per block age (Count)
system.cpu.icache.tags.ratioOccsTaskId::1024     0.833008                       # Ratio of occupied blocks and all blocks, per task id (Ratio)
system.cpu.icache.tags.tagAccesses           16492838                       # Number of tag accesses (Count)
system.cpu.icache.tags.dataAccesses          16492838                       # Number of data accesses (Count)
system.cpu.icache.tags.power_state.pwrStateResidencyTicks::UNDEFINED 234519019000                       # Cumulative time (in ticks) in various power states (Tick)
system.cpu.interrupts.clk_domain.clock           8000                       # Clock period in ticks (Tick)
system.cpu.itb_walker_cache.blockedCycles::no_mshrs            0                       # number of cycles access was blocked (Cycle)
system.cpu.itb_walker_cache.blockedCycles::no_targets            0                       # number of cycles access was blocked (Cycle)
system.cpu.itb_walker_cache.blockedCauses::no_mshrs            0                       # number of times access was blocked (Count)
system.cpu.itb_walker_cache.blockedCauses::no_targets            0                       # number of times access was blocked (Count)
system.cpu.itb_walker_cache.avgBlocked::no_mshrs          nan                       # average number of cycles each access was blocked ((Cycle/Count))
system.cpu.itb_walker_cache.avgBlocked::no_targets          nan                       # average number of cycles each access was blocked ((Cycle/Count))
system.cpu.itb_walker_cache.replacements            0                       # number of replacements (Count)
system.cpu.itb_walker_cache.power_state.pwrStateResidencyTicks::UNDEFINED 234519019000                       # Cumulative time (in ticks) in various power states (Tick)
system.cpu.itb_walker_cache.tags.tagsInUse            0                       # Average ticks per tags in use ((Tick/Count))
system.cpu.itb_walker_cache.tags.totalRefs            0                       # Total number of references to valid blocks. (Count)
system.cpu.itb_walker_cache.tags.sampledRefs            0                       # Sample count of references to valid blocks. (Count)
system.cpu.itb_walker_cache.tags.avgRefs          nan                       # Average number of references to valid blocks. ((Count/Count))
system.cpu.itb_walker_cache.tags.warmupTick            0                       # The tick when the warmup percentage was hit. (Tick)
system.cpu.itb_walker_cache.tags.tagAccesses            0                       # Number of tag accesses (Count)
system.cpu.itb_walker_cache.tags.dataAccesses            0                       # Number of data accesses (Count)
system.cpu.itb_walker_cache.tags.power_state.pwrStateResidencyTicks::UNDEFINED 234519019000                       # Cumulative time (in ticks) in various power states (Tick)
system.cpu.mmu.dtb.rdAccesses                       0                       # TLB accesses on read requests (Count)
system.cpu.mmu.dtb.wrAccesses                       0                       # TLB accesses on write requests (Count)
system.cpu.mmu.dtb.rdMisses                         0                       # TLB misses on read requests (Count)
system.cpu.mmu.dtb.wrMisses                         0                       # TLB misses on write requests (Count)
system.cpu.mmu.dtb.walker.power_state.pwrStateResidencyTicks::UNDEFINED 234519019000                       # Cumulative time (in ticks) in various power states (Tick)
system.cpu.mmu.itb.rdAccesses                       0                       # TLB accesses on read requests (Count)
system.cpu.mmu.itb.wrAccesses                       0                       # TLB accesses on write requests (Count)
system.cpu.mmu.itb.rdMisses                         0                       # TLB misses on read requests (Count)
system.cpu.mmu.itb.wrMisses                         0                       # TLB misses on write requests (Count)
system.cpu.mmu.itb.walker.power_state.pwrStateResidencyTicks::UNDEFINED 234519019000                       # Cumulative time (in ticks) in various power states (Tick)
system.cpu.power_state.pwrStateResidencyTicks::OFF 143058328500                       # Cumulative time (in ticks) in various power states (Tick)
system.cpu.thread_0.numInsts                        0                       # Number of Instructions committed (Count)
system.cpu.thread_0.numOps                          0                       # Number of Ops committed (Count)
system.cpu.thread_0.numMemRefs                      0                       # Number of Memory References (Count)
system.cpu.workload.numSyscalls                     0                       # Number of system calls (Count)
system.cpu_clk_domain.clock                       500                       # Clock period in ticks (Tick)
system.cpu_voltage_domain.voltage                   1                       # Voltage in Volts (Volt)
system.l2.demandMisses::switch_cpus.data      1533738                       # number of demand (read+write) misses (Count)
system.l2.demandMisses::total                 1533738                       # number of demand (read+write) misses (Count)
system.l2.overallMisses::switch_cpus.data      1533738                       # number of overall misses (Count)
system.l2.overallMisses::total                1533738                       # number of overall misses (Count)
system.l2.demandMissLatency::switch_cpus.data 123764773500                       # number of demand (read+write) miss ticks (Tick)
system.l2.demandMissLatency::total       123764773500                       # number of demand (read+write) miss ticks (Tick)
system.l2.overallMissLatency::switch_cpus.data 123764773500                       # number of overall miss ticks (Tick)
system.l2.overallMissLatency::total      123764773500                       # number of overall miss ticks (Tick)
system.l2.demandAccesses::switch_cpus.data      1533738                       # number of demand (read+write) accesses (Count)
system.l2.demandAccesses::total               1533738                       # number of demand (read+write) accesses (Count)
system.l2.overallAccesses::switch_cpus.data      1533738                       # number of overall (read+write) accesses (Count)
system.l2.overallAccesses::total              1533738                       # number of overall (read+write) accesses (Count)
system.l2.demandMissRate::switch_cpus.data            1                       # miss rate for demand accesses (Ratio)
system.l2.demandMissRate::total                     1                       # miss rate for demand accesses (Ratio)
system.l2.overallMissRate::switch_cpus.data            1                       # miss rate for overall accesses (Ratio)
system.l2.overallMissRate::total                    1                       # miss rate for overall accesses (Ratio)
system.l2.demandAvgMissLatency::switch_cpus.data 80694.860204                       # average overall miss latency ((Cycle/Count))
system.l2.demandAvgMissLatency::total    80694.860204                       # average overall miss latency ((Cycle/Count))
system.l2.overallAvgMissLatency::switch_cpus.data 80694.860204                       # average overall miss latency ((Cycle/Count))
system.l2.overallAvgMissLatency::total   80694.860204                       # average overall miss latency ((Cycle/Count))
system.l2.blockedCycles::no_mshrs                   0                       # number of cycles access was blocked (Cycle)
system.l2.blockedCycles::no_targets                 0                       # number of cycles access was blocked (Cycle)
system.l2.blockedCauses::no_mshrs                   0                       # number of times access was blocked (Count)
system.l2.blockedCauses::no_targets                 0                       # number of times access was blocked (Count)
system.l2.avgBlocked::no_mshrs                    nan                       # average number of cycles each access was blocked ((Cycle/Count))
system.l2.avgBlocked::no_targets                  nan                       # average number of cycles each access was blocked ((Cycle/Count))
system.l2.writebacks::writebacks              1533738                       # number of writebacks (Count)
system.l2.writebacks::total                   1533738                       # number of writebacks (Count)
system.l2.demandMshrMisses::switch_cpus.data      1533738                       # number of demand (read+write) MSHR misses (Count)
system.l2.demandMshrMisses::total             1533738                       # number of demand (read+write) MSHR misses (Count)
system.l2.overallMshrMisses::switch_cpus.data      1533738                       # number of overall MSHR misses (Count)
system.l2.overallMshrMisses::total            1533738                       # number of overall MSHR misses (Count)
system.l2.demandMshrMissLatency::switch_cpus.data 108427393500                       # number of demand (read+write) MSHR miss ticks (Tick)
system.l2.demandMshrMissLatency::total   108427393500                       # number of demand (read+write) MSHR miss ticks (Tick)
system.l2.overallMshrMissLatency::switch_cpus.data 108427393500                       # number of overall MSHR miss ticks (Tick)
system.l2.overallMshrMissLatency::total  108427393500                       # number of overall MSHR miss ticks (Tick)
system.l2.demandMshrMissRate::switch_cpus.data            1                       # mshr miss ratio for demand accesses (Ratio)
system.l2.demandMshrMissRate::total                 1                       # mshr miss ratio for demand accesses (Ratio)
system.l2.overallMshrMissRate::switch_cpus.data            1                       # mshr miss ratio for overall accesses (Ratio)
system.l2.overallMshrMissRate::total                1                       # mshr miss ratio for overall accesses (Ratio)
system.l2.demandAvgMshrMissLatency::switch_cpus.data 70694.860204                       # average overall mshr miss latency ((Cycle/Count))
system.l2.demandAvgMshrMissLatency::total 70694.860204                       # average overall mshr miss latency ((Cycle/Count))
system.l2.overallAvgMshrMissLatency::switch_cpus.data 70694.860204                       # average overall mshr miss latency ((Cycle/Count))
system.l2.overallAvgMshrMissLatency::total 70694.860204                       # average overall mshr miss latency ((Cycle/Count))
system.l2.replacements                        1533738                       # number of replacements (Count)
system.l2.ReadExReq.misses::switch_cpus.data      1533738                       # number of ReadExReq misses (Count)
system.l2.ReadExReq.misses::total             1533738                       # number of ReadExReq misses (Count)
system.l2.ReadExReq.missLatency::switch_cpus.data 123764773500                       # number of ReadExReq miss ticks (Tick)
system.l2.ReadExReq.missLatency::total   123764773500                       # number of ReadExReq miss ticks (Tick)
system.l2.ReadExReq.accesses::switch_cpus.data      1533738                       # number of ReadExReq accesses(hits+misses) (Count)
system.l2.ReadExReq.accesses::total           1533738                       # number of ReadExReq accesses(hits+misses) (Count)
system.l2.ReadExReq.missRate::switch_cpus.data            1                       # miss rate for ReadExReq accesses (Ratio)
system.l2.ReadExReq.missRate::total                 1                       # miss rate for ReadExReq accesses (Ratio)
system.l2.ReadExReq.avgMissLatency::switch_cpus.data 80694.860204                       # average ReadExReq miss latency ((Tick/Count))
system.l2.ReadExReq.avgMissLatency::total 80694.860204                       # average ReadExReq miss latency ((Tick/Count))
system.l2.ReadExReq.mshrMisses::switch_cpus.data      1533738                       # number of ReadExReq MSHR misses (Count)
system.l2.ReadExReq.mshrMisses::total         1533738                       # number of ReadExReq MSHR misses (Count)
system.l2.ReadExReq.mshrMissLatency::switch_cpus.data 108427393500                       # number of ReadExReq MSHR miss ticks (Tick)
system.l2.ReadExReq.mshrMissLatency::total 108427393500                       # number of ReadExReq MSHR miss ticks (Tick)
system.l2.ReadExReq.mshrMissRate::switch_cpus.data            1                       # mshr miss rate for ReadExReq accesses (Ratio)
system.l2.ReadExReq.mshrMissRate::total             1                       # mshr miss rate for ReadExReq accesses (Ratio)
system.l2.ReadExReq.avgMshrMissLatency::switch_cpus.data 70694.860204                       # average ReadExReq mshr miss latency ((Tick/Count))
system.l2.ReadExReq.avgMshrMissLatency::total 70694.860204                       # average ReadExReq mshr miss latency ((Tick/Count))
system.l2.WritebackDirty.hits::writebacks      1533738                       # number of WritebackDirty hits (Count)
system.l2.WritebackDirty.hits::total          1533738                       # number of WritebackDirty hits (Count)
system.l2.WritebackDirty.accesses::writebacks      1533738                       # number of WritebackDirty accesses(hits+misses) (Count)
system.l2.WritebackDirty.accesses::total      1533738                       # number of WritebackDirty accesses(hits+misses) (Count)
system.l2.power_state.pwrStateResidencyTicks::UNDEFINED 234519019000                       # Cumulative time (in ticks) in various power states (Tick)
system.l2.tags.tagsInUse                        32768                       # Average ticks per tags in use ((Tick/Count))
system.l2.tags.totalRefs                      3131991                       # Total number of references to valid blocks. (Count)
system.l2.tags.sampledRefs                    1566506                       # Sample count of references to valid blocks. (Count)
system.l2.tags.avgRefs                       1.999348                       # Average number of references to valid blocks. ((Count/Count))
system.l2.tags.warmupTick                           0                       # The tick when the warmup percentage was hit. (Tick)
system.l2.tags.occupancies::cpu.data       350.361351                       # Average occupied blocks per tick, per requestor ((Count/Tick))
system.l2.tags.occupancies::switch_cpus.data 32417.638649                       # Average occupied blocks per tick, per requestor ((Count/Tick))
system.l2.tags.avgOccs::cpu.data             0.010692                       # Average percentage of cache occupancy ((Ratio/Tick))
system.l2.tags.avgOccs::switch_cpus.data     0.989308                       # Average percentage of cache occupancy ((Ratio/Tick))
system.l2.tags.avgOccs::total                       1                       # Average percentage of cache occupancy ((Ratio/Tick))
system.l2.tags.occupanciesTaskId::1024          32768                       # Occupied blocks per task id (Count)
system.l2.tags.ageTaskId_1024::0                  105                       # Occupied blocks per task id, per block age (Count)
system.l2.tags.ageTaskId_1024::1                  966                       # Occupied blocks per task id, per block age (Count)
system.l2.tags.ageTaskId_1024::2                 9648                       # Occupied blocks per task id, per block age (Count)
system.l2.tags.ageTaskId_1024::3                22049                       # Occupied blocks per task id, per block age (Count)
system.l2.tags.ratioOccsTaskId::1024                1                       # Ratio of occupied blocks and all blocks, per task id (Ratio)
system.l2.tags.tagAccesses                   13803642                       # Number of tag accesses (Count)
system.l2.tags.dataAccesses                  13803642                       # Number of data accesses (Count)
system.l2.tags.power_state.pwrStateResidencyTicks::UNDEFINED 234519019000                       # Cumulative time (in ticks) in various power states (Tick)
system.mem_ctrls.avgPriority_writebacks::samples   1533738.00                       # Average QoS priority value for accepted requests (Count)
system.mem_ctrls.avgPriority_switch_cpus.data::samples   1533738.00                       # Average QoS priority value for accepted requests (Count)
system.mem_ctrls.priorityMinLatency      0.000000018750                       # per QoS priority minimum request to response latency (Second)
system.mem_ctrls.priorityMaxLatency      0.000008714500                       # per QoS priority maximum request to response latency (Second)
system.mem_ctrls.numReadWriteTurnArounds        95857                       # Number of turnarounds from READ to WRITE (Count)
system.mem_ctrls.numWriteReadTurnArounds        95857                       # Number of turnarounds from WRITE to READ (Count)
system.mem_ctrls.numStayReadState             4539704                       # Number of times bus staying in READ state (Count)
system.mem_ctrls.numStayWriteState            1439461                       # Number of times bus staying in WRITE state (Count)
system.mem_ctrls.readReqs                     1533738                       # Number of read requests accepted (Count)
system.mem_ctrls.writeReqs                    1533738                       # Number of write requests accepted (Count)
system.mem_ctrls.readBursts                   1533738                       # Number of controller read bursts, including those serviced by the write queue (Count)
system.mem_ctrls.writeBursts                  1533738                       # Number of controller write bursts, including those merged in the write queue (Count)
system.mem_ctrls.servicedByWrQ                      0                       # Number of controller read bursts serviced by the write queue (Count)
system.mem_ctrls.mergedWrBursts                     0                       # Number of controller write bursts merged with an existing one (Count)
system.mem_ctrls.neitherReadNorWriteReqs            0                       # Number of requests that are neither read nor write (Count)
system.mem_ctrls.avgRdQLen                       1.00                       # Average read queue length when enqueuing ((Count/Tick))
system.mem_ctrls.avgWrQLen                      26.14                       # Average write queue length when enqueuing ((Count/Tick))
system.mem_ctrls.numRdRetry                         0                       # Number of times read queue was full causing retry (Count)
system.mem_ctrls.numWrRetry                         0                       # Number of times write queue was full causing retry (Count)
system.mem_ctrls.readPktSize::0                     0                       # Read request sizes (log2) (Count)
system.mem_ctrls.readPktSize::1                     0                       # Read request sizes (log2) (Count)
system.mem_ctrls.readPktSize::2                     0                       # Read request sizes (log2) (Count)
system.mem_ctrls.readPktSize::3                     0                       # Read request sizes (log2) (Count)
system.mem_ctrls.readPktSize::4                     0                       # Read request sizes (log2) (Count)
system.mem_ctrls.readPktSize::5                     0                       # Read request sizes (log2) (Count)
system.mem_ctrls.readPktSize::6               1533738                       # Read request sizes (log2) (Count)
system.mem_ctrls.writePktSize::0                    0                       # Write request sizes (log2) (Count)
system.mem_ctrls.writePktSize::1                    0                       # Write request sizes (log2) (Count)
system.mem_ctrls.writePktSize::2                    0                       # Write request sizes (log2) (Count)
system.mem_ctrls.writePktSize::3                    0                       # Write request sizes (log2) (Count)
system.mem_ctrls.writePktSize::4                    0                       # Write request sizes (log2) (Count)
system.mem_ctrls.writePktSize::5                    0                       # Write request sizes (log2) (Count)
system.mem_ctrls.writePktSize::6              1533738                       # Write request sizes (log2) (Count)
system.mem_ctrls.rdQLenPdf::0                 1533738                       # What read queue length does an incoming req see (Count)
system.mem_ctrls.rdQLenPdf::1                       0                       # What read queue length does an incoming req see (Count)
system.mem_ctrls.rdQLenPdf::2                       0                       # What read queue length does an incoming req see (Count)
system.mem_ctrls.rdQLenPdf::3                       0                       # What read queue length does an incoming req see (Count)
system.mem_ctrls.rdQLenPdf::4                       0                       # What read queue length does an incoming req see (Count)
system.mem_ctrls.rdQLenPdf::5                       0                       # What read queue length does an incoming req see (Count)
system.mem_ctrls.rdQLenPdf::6                       0                       # What read queue length does an incoming req see (Count)
system.mem_ctrls.rdQLenPdf::7                       0                       # What read queue length does an incoming req see (Count)
system.mem_ctrls.rdQLenPdf::8                       0                       # What read queue length does an incoming req see (Count)
system.mem_ctrls.rdQLenPdf::9                       0                       # What read queue length does an incoming req see (Count)
system.mem_ctrls.rdQLenPdf::10                      0                       # What read queue length does an incoming req see (Count)
system.mem_ctrls.rdQLenPdf::11                      0                       # What read queue length does an incoming req see (Count)
system.mem_ctrls.rdQLenPdf::12                      0                       # What read queue length does an incoming req see (Count)
system.mem_ctrls.rdQLenPdf::13                      0                       # What read queue length does an incoming req see (Count)
system.mem_ctrls.rdQLenPdf::14                      0                       # What read queue length does an incoming req see (Count)
system.mem_ctrls.rdQLenPdf::15                      0                       # What read queue length does an incoming req see (Count)
system.mem_ctrls.rdQLenPdf::16                      0                       # What read queue length does an incoming req see (Count)
system.mem_ctrls.rdQLenPdf::17                      0                       # What read queue length does an incoming req see (Count)
system.mem_ctrls.rdQLenPdf::18                      0                       # What read queue length does an incoming req see (Count)
system.mem_ctrls.rdQLenPdf::19                      0                       # What read queue length does an incoming req see (Count)
system.mem_ctrls.rdQLenPdf::20                      0                       # What read queue length does an incoming req see (Count)
system.mem_ctrls.rdQLenPdf::21                      0                       # What read queue length does an incoming req see (Count)
system.mem_ctrls.rdQLenPdf::22                      0                       # What read queue length does an incoming req see (Count)
system.mem_ctrls.rdQLenPdf::23                      0                       # What read queue length does an incoming req see (Count)
system.mem_ctrls.rdQLenPdf::24                      0                       # What read queue length does an incoming req see (Count)
system.mem_ctrls.rdQLenPdf::25                      0                       # What read queue length does an incoming req see (Count)
system.mem_ctrls.rdQLenPdf::26                      0                       # What read queue length does an incoming req see (Count)
system.mem_ctrls.rdQLenPdf::27                      0                       # What read queue length does an incoming req see (Count)
system.mem_ctrls.rdQLenPdf::28                      0                       # What read queue length does an incoming req see (Count)
system.mem_ctrls.rdQLenPdf::29                      0                       # What read queue length does an incoming req see (Count)
system.mem_ctrls.rdQLenPdf::30                      0                       # What read queue length does an incoming req see (Count)
system.mem_ctrls.rdQLenPdf::31                      0                       # What read queue length does an incoming req see (Count)
system.mem_ctrls.wrQLenPdf::0                       1                       # What write queue length does an incoming req see (Count)
system.mem_ctrls.wrQLenPdf::1                       1                       # What write queue length does an incoming req see (Count)
system.mem_ctrls.wrQLenPdf::2                       1                       # What write queue length does an incoming req see (Count)
system.mem_ctrls.wrQLenPdf::3                       1                       # What write queue length does an incoming req see (Count)
system.mem_ctrls.wrQLenPdf::4                       1                       # What write queue length does an incoming req see (Count)
system.mem_ctrls.wrQLenPdf::5                       1                       # What write queue length does an incoming req see (Count)
system.mem_ctrls.wrQLenPdf::6                       1                       # What write queue length does an incoming req see (Count)
system.mem_ctrls.wrQLenPdf::7                       1                       # What write queue length does an incoming req see (Count)
system.mem_ctrls.wrQLenPdf::8                       1                       # What write queue length does an incoming req see (Count)
system.mem_ctrls.wrQLenPdf::9                       1                       # What write queue length does an incoming req see (Count)
system.mem_ctrls.wrQLenPdf::10                      1                       # What write queue length does an incoming req see (Count)
system.mem_ctrls.wrQLenPdf::11                      1                       # What write queue length does an incoming req see (Count)
system.mem_ctrls.wrQLenPdf::12                      1                       # What write queue length does an incoming req see (Count)
system.mem_ctrls.wrQLenPdf::13                      1                       # What write queue length does an incoming req see (Count)
system.mem_ctrls.wrQLenPdf::14                      1                       # What write queue length does an incoming req see (Count)
system.mem_ctrls.wrQLenPdf::15                      3                       # What write queue length does an incoming req see (Count)
system.mem_ctrls.wrQLenPdf::16                      3                       # What write queue length does an incoming req see (Count)
system.mem_ctrls.wrQLenPdf::17                  95061                       # What write queue length does an incoming req see (Count)
system.mem_ctrls.wrQLenPdf::18                  95858                       # What write queue length does an incoming req see (Count)
system.mem_ctrls.wrQLenPdf::19                  95857                       # What write queue length does an incoming req see (Count)
system.mem_ctrls.wrQLenPdf::20                  95857                       # What write queue length does an incoming req see (Count)
system.mem_ctrls.wrQLenPdf::21                  95857                       # What write queue length does an incoming req see (Count)
system.mem_ctrls.wrQLenPdf::22                  95858                       # What write queue length does an incoming req see (Count)
system.mem_ctrls.wrQLenPdf::23                  95857                       # What write queue length does an incoming req see (Count)
system.mem_ctrls.wrQLenPdf::24                  95857                       # What write queue length does an incoming req see (Count)
system.mem_ctrls.wrQLenPdf::25                  96656                       # What write queue length does an incoming req see (Count)
system.mem_ctrls.wrQLenPdf::26                  95857                       # What write queue length does an incoming req see (Count)
system.mem_ctrls.wrQLenPdf::27                  95857                       # What write queue length does an incoming req see (Count)
system.mem_ctrls.wrQLenPdf::28                  95857                       # What write queue length does an incoming req see (Count)
system.mem_ctrls.wrQLenPdf::29                  95857                       # What write queue length does an incoming req see (Count)
system.mem_ctrls.wrQLenPdf::30                  95857                       # What write queue length does an incoming req see (Count)
system.mem_ctrls.wrQLenPdf::31                  95857                       # What write queue length does an incoming req see (Count)
system.mem_ctrls.wrQLenPdf::32                  95857                       # What write queue length does an incoming req see (Count)
system.mem_ctrls.wrQLenPdf::33                      0                       # What write queue length does an incoming req see (Count)
system.mem_ctrls.wrQLenPdf::34                      0                       # What write queue length does an incoming req see (Count)
system.mem_ctrls.wrQLenPdf::35                      0                       # What write queue length does an incoming req see (Count)
system.mem_ctrls.wrQLenPdf::36                      0                       # What write queue length does an incoming req see (Count)
system.mem_ctrls.wrQLenPdf::37                      0                       # What write queue length does an incoming req see (Count)
system.mem_ctrls.wrQLenPdf::38                      0                       # What write queue length does an incoming req see (Count)
system.mem_ctrls.wrQLenPdf::39                      0                       # What write queue length does an incoming req see (Count)
system.mem_ctrls.wrQLenPdf::40                      0                       # What write queue length does an incoming req see (Count)
system.mem_ctrls.wrQLenPdf::41                      0                       # What write queue length does an incoming req see (Count)
system.mem_ctrls.wrQLenPdf::42                      0                       # What write queue length does an incoming req see (Count)
system.mem_ctrls.wrQLenPdf::43                      0                       # What write queue length does an incoming req see (Count)
system.mem_ctrls.wrQLenPdf::44                      0                       # What write queue length does an incoming req see (Count)
system.mem_ctrls.wrQLenPdf::45                      0                       # What write queue length does an incoming req see (Count)
system.mem_ctrls.wrQLenPdf::46                      0                       # What write queue length does an incoming req see (Count)
system.mem_ctrls.wrQLenPdf::47                      0                       # What write queue length does an incoming req see (Count)
system.mem_ctrls.wrQLenPdf::48                      0                       # What write queue length does an incoming req see (Count)
system.mem_ctrls.wrQLenPdf::49                      0                       # What write queue length does an incoming req see (Count)
system.mem_ctrls.wrQLenPdf::50                      0                       # What write queue length does an incoming req see (Count)
system.mem_ctrls.wrQLenPdf::51                      0                       # What write queue length does an incoming req see (Count)
system.mem_ctrls.wrQLenPdf::52                      0                       # What write queue length does an incoming req see (Count)
system.mem_ctrls.wrQLenPdf::53                      0                       # What write queue length does an incoming req see (Count)
system.mem_ctrls.wrQLenPdf::54                      0                       # What write queue length does an incoming req see (Count)
system.mem_ctrls.wrQLenPdf::55                      0                       # What write queue length does an incoming req see (Count)
system.mem_ctrls.wrQLenPdf::56                      0                       # What write queue length does an incoming req see (Count)
system.mem_ctrls.wrQLenPdf::57                      0                       # What write queue length does an incoming req see (Count)
system.mem_ctrls.wrQLenPdf::58                      0                       # What write queue length does an incoming req see (Count)
system.mem_ctrls.wrQLenPdf::59                      0                       # What write queue length does an incoming req see (Count)
system.mem_ctrls.wrQLenPdf::60                      0                       # What write queue length does an incoming req see (Count)
system.mem_ctrls.wrQLenPdf::61                      0                       # What write queue length does an incoming req see (Count)
system.mem_ctrls.wrQLenPdf::62                      0                       # What write queue length does an incoming req see (Count)
system.mem_ctrls.wrQLenPdf::63                      0                       # What write queue length does an incoming req see (Count)
system.mem_ctrls.rdPerTurnAround::samples        95857                       # Reads before turning the bus around for writes (Count)
system.mem_ctrls.rdPerTurnAround::mean      16.000250                       # Reads before turning the bus around for writes (Count)
system.mem_ctrls.rdPerTurnAround::gmean     15.999669                       # Reads before turning the bus around for writes (Count)
system.mem_ctrls.rdPerTurnAround::stdev      0.140714                       # Reads before turning the bus around for writes (Count)
system.mem_ctrls.rdPerTurnAround::14-15           799      0.83%      0.83% # Reads before turning the bus around for writes (Count)
system.mem_ctrls.rdPerTurnAround::16-17         95055     99.16%    100.00% # Reads before turning the bus around for writes (Count)
system.mem_ctrls.rdPerTurnAround::18-19             2      0.00%    100.00% # Reads before turning the bus around for writes (Count)
system.mem_ctrls.rdPerTurnAround::32-33             1      0.00%    100.00% # Reads before turning the bus around for writes (Count)
system.mem_ctrls.rdPerTurnAround::total         95857                       # Reads before turning the bus around for writes (Count)
system.mem_ctrls.wrPerTurnAround::samples        95857                       # Writes before turning the bus around for reads (Count)
system.mem_ctrls.wrPerTurnAround::mean      16.000073                       # Writes before turning the bus around for reads (Count)
system.mem_ctrls.wrPerTurnAround::gmean     16.000067                       # Writes before turning the bus around for reads (Count)
system.mem_ctrls.wrPerTurnAround::stdev      0.014079                       # Writes before turning the bus around for reads (Count)
system.mem_ctrls.wrPerTurnAround::16            95854    100.00%    100.00% # Writes before turning the bus around for reads (Count)
system.mem_ctrls.wrPerTurnAround::17                1      0.00%    100.00% # Writes before turning the bus around for reads (Count)
system.mem_ctrls.wrPerTurnAround::19                2      0.00%    100.00% # Writes before turning the bus around for reads (Count)
system.mem_ctrls.wrPerTurnAround::total         95857                       # Writes before turning the bus around for reads (Count)
system.mem_ctrls.bytesReadWrQ                       0                       # Total number of bytes read from write queue (Byte)
system.mem_ctrls.bytesReadSys                98159232                       # Total read bytes from the system interface side (Byte)
system.mem_ctrls.bytesWrittenSys             98159232                       # Total written bytes from the system interface side (Byte)
system.mem_ctrls.avgRdBWSys              686148321.66167808                       # Average system read bandwidth in Byte/s ((Byte/Second))
system.mem_ctrls.avgWrBWSys              686148321.66167808                       # Average system write bandwidth in Byte/s ((Byte/Second))
system.mem_ctrls.totGap                  143058283500                       # Total gap between requests (Tick)
system.mem_ctrls.avgGap                      46637.13                       # Average gap between requests ((Tick/Count))
system.mem_ctrls.requestorReadBytes::switch_cpus.data     98159232                       # Per-requestor bytes read from memory (Byte)
system.mem_ctrls.requestorWriteBytes::writebacks     98158016                       # Per-requestor bytes write to memory (Byte)
system.mem_ctrls.requestorReadRate::switch_cpus.data 686148321.661678075790                       # Per-requestor bytes read from memory rate ((Byte/Second))
system.mem_ctrls.requestorWriteRate::writebacks 686139821.632265210152                       # Per-requestor bytes write to memory rate ((Byte/Second))
system.mem_ctrls.requestorReadAccesses::switch_cpus.data      1533738                       # Per-requestor read serviced memory accesses (Count)
system.mem_ctrls.requestorWriteAccesses::writebacks      1533738                       # Per-requestor write serviced memory accesses (Count)
system.mem_ctrls.requestorReadTotalLat::switch_cpus.data  45454778000                       # Per-requestor read total memory access latency (Tick)
system.mem_ctrls.requestorWriteTotalLat::writebacks 3531295867500                       # Per-requestor write total memory access latency (Tick)
system.mem_ctrls.requestorReadAvgLat::switch_cpus.data     29636.60                       # Per-requestor read average memory access latency ((Tick/Count))
system.mem_ctrls.requestorWriteAvgLat::writebacks   2302411.41                       # Per-requestor write average memory access latency ((Tick/Count))
system.mem_ctrls.dram.bytesRead::switch_cpus.data     98159232                       # Number of bytes read from this memory (Byte)
system.mem_ctrls.dram.bytesRead::total       98159232                       # Number of bytes read from this memory (Byte)
system.mem_ctrls.dram.bytesWritten::writebacks     98159232                       # Number of bytes written to this memory (Byte)
system.mem_ctrls.dram.bytesWritten::total     98159232                       # Number of bytes written to this memory (Byte)
system.mem_ctrls.dram.numReads::switch_cpus.data      1533738                       # Number of read requests responded to by this memory (Count)
system.mem_ctrls.dram.numReads::total         1533738                       # Number of read requests responded to by this memory (Count)
system.mem_ctrls.dram.numWrites::writebacks      1533738                       # Number of write requests responded to by this memory (Count)
system.mem_ctrls.dram.numWrites::total        1533738                       # Number of write requests responded to by this memory (Count)
system.mem_ctrls.dram.bwRead::switch_cpus.data    686148322                       # Total read bandwidth from this memory ((Byte/Second))
system.mem_ctrls.dram.bwRead::total         686148322                       # Total read bandwidth from this memory ((Byte/Second))
system.mem_ctrls.dram.bwWrite::writebacks    686148322                       # Write bandwidth from this memory ((Byte/Second))
system.mem_ctrls.dram.bwWrite::total        686148322                       # Write bandwidth from this memory ((Byte/Second))
system.mem_ctrls.dram.bwTotal::writebacks    686148322                       # Total bandwidth to/from this memory ((Byte/Second))
system.mem_ctrls.dram.bwTotal::switch_cpus.data    686148322                       # Total bandwidth to/from this memory ((Byte/Second))
system.mem_ctrls.dram.bwTotal::total       1372296643                       # Total bandwidth to/from this memory ((Byte/Second))
system.mem_ctrls.dram.readBursts              1533738                       # Number of DRAM read bursts (Count)
system.mem_ctrls.dram.writeBursts             1533719                       # Number of DRAM write bursts (Count)
system.mem_ctrls.dram.perBankRdBursts::0        95872                       # Per bank write bursts (Count)
system.mem_ctrls.dram.perBankRdBursts::1        95872                       # Per bank write bursts (Count)
system.mem_ctrls.dram.perBankRdBursts::2        95872                       # Per bank write bursts (Count)
system.mem_ctrls.dram.perBankRdBursts::3        95872                       # Per bank write bursts (Count)
system.mem_ctrls.dram.perBankRdBursts::4        95872                       # Per bank write bursts (Count)
system.mem_ctrls.dram.perBankRdBursts::5        95872                       # Per bank write bursts (Count)
system.mem_ctrls.dram.perBankRdBursts::6        95872                       # Per bank write bursts (Count)
system.mem_ctrls.dram.perBankRdBursts::7        95872                       # Per bank write bursts (Count)
system.mem_ctrls.dram.perBankRdBursts::8        95767                       # Per bank write bursts (Count)
system.mem_ctrls.dram.perBankRdBursts::9        95763                       # Per bank write bursts (Count)
system.mem_ctrls.dram.perBankRdBursts::10        95872                       # Per bank write bursts (Count)
system.mem_ctrls.dram.perBankRdBursts::11        95872                       # Per bank write bursts (Count)
system.mem_ctrls.dram.perBankRdBursts::12        95872                       # Per bank write bursts (Count)
system.mem_ctrls.dram.perBankRdBursts::13        95872                       # Per bank write bursts (Count)
system.mem_ctrls.dram.perBankRdBursts::14        95872                       # Per bank write bursts (Count)
system.mem_ctrls.dram.perBankRdBursts::15        95872                       # Per bank write bursts (Count)
system.mem_ctrls.dram.perBankWrBursts::0        95872                       # Per bank write bursts (Count)
system.mem_ctrls.dram.perBankWrBursts::1        95872                       # Per bank write bursts (Count)
system.mem_ctrls.dram.perBankWrBursts::2        95872                       # Per bank write bursts (Count)
system.mem_ctrls.dram.perBankWrBursts::3        95872                       # Per bank write bursts (Count)
system.mem_ctrls.dram.perBankWrBursts::4        95872                       # Per bank write bursts (Count)
system.mem_ctrls.dram.perBankWrBursts::5        95872                       # Per bank write bursts (Count)
system.mem_ctrls.dram.perBankWrBursts::6        95872                       # Per bank write bursts (Count)
system.mem_ctrls.dram.perBankWrBursts::7        95872                       # Per bank write bursts (Count)
system.mem_ctrls.dram.perBankWrBursts::8        95748                       # Per bank write bursts (Count)
system.mem_ctrls.dram.perBankWrBursts::9        95763                       # Per bank write bursts (Count)
system.mem_ctrls.dram.perBankWrBursts::10        95872                       # Per bank write bursts (Count)
system.mem_ctrls.dram.perBankWrBursts::11        95872                       # Per bank write bursts (Count)
system.mem_ctrls.dram.perBankWrBursts::12        95872                       # Per bank write bursts (Count)
system.mem_ctrls.dram.perBankWrBursts::13        95872                       # Per bank write bursts (Count)
system.mem_ctrls.dram.perBankWrBursts::14        95872                       # Per bank write bursts (Count)
system.mem_ctrls.dram.perBankWrBursts::15        95872                       # Per bank write bursts (Count)
system.mem_ctrls.dram.totQLat             16697190500                       # Total ticks spent queuing (Tick)
system.mem_ctrls.dram.totBusLat            7668690000                       # Total ticks spent in databus transfers (Tick)
system.mem_ctrls.dram.totMemAccLat        45454778000                       # Total ticks spent from burst creation until serviced by the DRAM (Tick)
system.mem_ctrls.dram.avgQLat                10886.60                       # Average queueing delay per DRAM burst ((Tick/Count))
system.mem_ctrls.dram.avgBusLat               5000.00                       # Average bus latency per DRAM burst ((Tick/Count))
system.mem_ctrls.dram.avgMemAccLat           29636.60                       # Average memory access latency per DRAM burst ((Tick/Count))
system.mem_ctrls.dram.readRowHits             1410110                       # Number of row buffer hits during reads (Count)
system.mem_ctrls.dram.writeRowHits            1425079                       # Number of row buffer hits during writes (Count)
system.mem_ctrls.dram.readRowHitRate            91.94                       # Row buffer hit rate for reads (Ratio)
system.mem_ctrls.dram.writeRowHitRate           92.92                       # Row buffer hit rate for writes (Ratio)
system.mem_ctrls.dram.bytesPerActivate::samples       232266                       # Bytes accessed per row activation (Byte)
system.mem_ctrls.dram.bytesPerActivate::mean   845.222082                       # Bytes accessed per row activation (Byte)
system.mem_ctrls.dram.bytesPerActivate::gmean   748.835393                       # Bytes accessed per row activation (Byte)
system.mem_ctrls.dram.bytesPerActivate::stdev   292.784820                       # Bytes accessed per row activation (Byte)
system.mem_ctrls.dram.bytesPerActivate::0-127         4558      1.96%      1.96% # Bytes accessed per row activation (Byte)
system.mem_ctrls.dram.bytesPerActivate::128-255         5074      2.18%      4.15% # Bytes accessed per row activation (Byte)
system.mem_ctrls.dram.bytesPerActivate::256-383        24453     10.53%     14.67% # Bytes accessed per row activation (Byte)
system.mem_ctrls.dram.bytesPerActivate::384-511         4887      2.10%     16.78% # Bytes accessed per row activation (Byte)
system.mem_ctrls.dram.bytesPerActivate::512-639         4279      1.84%     18.62% # Bytes accessed per row activation (Byte)
system.mem_ctrls.dram.bytesPerActivate::640-767        14828      6.38%     25.01% # Bytes accessed per row activation (Byte)
system.mem_ctrls.dram.bytesPerActivate::768-895        14532      6.26%     31.26% # Bytes accessed per row activation (Byte)
system.mem_ctrls.dram.bytesPerActivate::896-1023         6678      2.88%     34.14% # Bytes accessed per row activation (Byte)
system.mem_ctrls.dram.bytesPerActivate::1024-1151       152977     65.86%    100.00% # Bytes accessed per row activation (Byte)
system.mem_ctrls.dram.bytesPerActivate::total       232266                       # Bytes accessed per row activation (Byte)
system.mem_ctrls.dram.bytesRead              98159232                       # Total bytes read (Byte)
system.mem_ctrls.dram.bytesWritten           98158016                       # Total bytes written (Byte)
system.mem_ctrls.dram.avgRdBW              686.148322                       # Average DRAM read bandwidth in MiBytes/s ((Byte/Second))
system.mem_ctrls.dram.avgWrBW              686.139822                       # Average DRAM write bandwidth in MiBytes/s ((Byte/Second))
system.mem_ctrls.dram.peakBW                 12800.00                       # Theoretical peak bandwidth in MiByte/s ((Byte/Second))
system.mem_ctrls.dram.busUtil                   10.72                       # Data bus utilization in percentage (Ratio)
system.mem_ctrls.dram.busUtilRead                5.36                       # Data bus utilization in percentage for reads (Ratio)
system.mem_ctrls.dram.busUtilWrite               5.36                       # Data bus utilization in percentage for writes (Ratio)
system.mem_ctrls.dram.pageHitRate               92.43                       # Row buffer hit rate, read and write combined (Ratio)
system.mem_ctrls.dram.power_state.pwrStateResidencyTicks::UNDEFINED 234519019000                       # Cumulative time (in ticks) in various power states (Tick)
system.mem_ctrls.dram.rank0.actEnergy       829325280                       # Energy for activate commands per rank (pJ) (Joule)
system.mem_ctrls.dram.rank0.preEnergy       440793045                       # Energy for precharge commands per rank (pJ) (Joule)
system.mem_ctrls.dram.rank0.readEnergy     5476208640                       # Energy for read commands per rank (pJ) (Joule)
system.mem_ctrls.dram.rank0.writeEnergy    4003614720                       # Energy for write commands per rank (pJ) (Joule)
system.mem_ctrls.dram.rank0.refreshEnergy 11292780720.000002                       # Energy for refresh commands per rank (pJ) (Joule)
system.mem_ctrls.dram.rank0.actBackEnergy  34152098910                       # Energy for active background per rank (pJ) (Joule)
system.mem_ctrls.dram.rank0.preBackEnergy  26171746080                       # Energy for precharge background per rank (pJ) (Joule)
system.mem_ctrls.dram.rank0.actPowerDownEnergy            0                       # Energy for active power-down per rank (pJ) (Joule)
system.mem_ctrls.dram.rank0.prePowerDownEnergy            0                       # Energy for precharge power-down per rank (pJ) (Joule)
[...]
system.switch_cpus.commit.committedInstType_0::SimdShaSigma3            0      0.00%     63.16% # Class of committed instruction (Count)
system.switch_cpus.commit.committedInstType_0::SimdPredAlu            0      0.00%     63.16% # Class of committed instruction (Count)
system.switch_cpus.commit.committedInstType_0::MemRead     26380369     18.86%     82.02% # Class of committed instruction (Count)
system.switch_cpus.commit.committedInstType_0::MemWrite      1840491      1.32%     83.33% # Class of committed instruction (Count)
system.switch_cpus.commit.committedInstType_0::FloatMemRead     11656441      8.33%     91.67% # Class of committed instruction (Count)
system.switch_cpus.commit.committedInstType_0::FloatMemWrite     11656441      8.33%    100.00% # Class of committed instruction (Count)
system.switch_cpus.commit.committedInstType_0::IprAccess            0      0.00%    100.00% # Class of committed instruction (Count)
system.switch_cpus.commit.committedInstType_0::InstPrefetch            0      0.00%    100.00% # Class of committed instruction (Count)
system.switch_cpus.commit.committedInstType_0::total    139877300                       # Class of committed instruction (Count)
system.switch_cpus.commit.commitEligibleSamples      2087265                       # number cycles where commit BW limit reached (Cycle)
system.switch_cpus.decode.idleCycles          4086365                       # Number of cycles decode is idle (Cycle)
system.switch_cpus.decode.blockedCycles     263942115                       # Number of cycles decode is blocked (Cycle)
system.switch_cpus.decode.runCycles          10198242                       # Number of cycles decode is running (Cycle)
system.switch_cpus.decode.unblockCycles       7865337                       # Number of cycles decode is unblocking (Cycle)
system.switch_cpus.decode.squashCycles          24574                       # Number of cycles decode is squashing (Cycle)
system.switch_cpus.decode.branchResolved       628069                       # Number of times decode resolved a branch (Count)
system.switch_cpus.decode.branchMispred             1                       # Number of times decode detected a branch misprediction (Count)
system.switch_cpus.decode.decodedInsts      142936832                       # Number of instructions handled by decode (Count)
system.switch_cpus.decode.squashedInsts             8                       # Number of squashed instructions handled by decode (Count)
system.switch_cpus.fetch.icacheStallCycles      8270698                       # Number of cycles fetch is stalled on an Icache miss (Cycle)
system.switch_cpus.fetch.insts              103045205                       # Number of instructions fetch has processed (Count)
system.switch_cpus.fetch.branches              633279                       # Number of branches that fetch encountered (Count)
system.switch_cpus.fetch.predictedBranches       633260                       # Number of branches that fetch has predicted taken (Count)
system.switch_cpus.fetch.cycles             277821384                       # Number of cycles fetch has run and was not squashing or blocked (Cycle)
system.switch_cpus.fetch.squashCycles           49150                       # Number of cycles fetch has spent squashing (Cycle)
system.switch_cpus.fetch.cacheLines           8246419                       # Number of cache lines fetched (Count)
system.switch_cpus.fetch.icacheSquashes           123                       # Number of outstanding Icache misses that were squashed (Count)
system.switch_cpus.fetch.nisnDist::samples    286116657                       # Number of instructions fetched each cycle (Total) (Count)
system.switch_cpus.fetch.nisnDist::mean      0.503625                       # Number of instructions fetched each cycle (Total) (Count)
system.switch_cpus.fetch.nisnDist::stdev     1.814902                       # Number of instructions fetched each cycle (Total) (Count)
system.switch_cpus.fetch.nisnDist::underflows            0      0.00%      0.00% # Number of instructions fetched each cycle (Total) (Count)
system.switch_cpus.fetch.nisnDist::0        263009203     91.92%     91.92% # Number of instructions fetched each cycle (Total) (Count)
system.switch_cpus.fetch.nisnDist::1           633167      0.22%     92.15% # Number of instructions fetched each cycle (Total) (Count)
system.switch_cpus.fetch.nisnDist::2          1127307      0.39%     92.54% # Number of instructions fetched each cycle (Total) (Count)
system.switch_cpus.fetch.nisnDist::3          2430752      0.85%     93.39% # Number of instructions fetched each cycle (Total) (Count)
system.switch_cpus.fetch.nisnDist::4          1979523      0.69%     94.08% # Number of instructions fetched each cycle (Total) (Count)
system.switch_cpus.fetch.nisnDist::5          2291255      0.80%     94.88% # Number of instructions fetched each cycle (Total) (Count)
system.switch_cpus.fetch.nisnDist::6           527564      0.18%     95.07% # Number of instructions fetched each cycle (Total) (Count)
system.switch_cpus.fetch.nisnDist::7          1567259      0.55%     95.61% # Number of instructions fetched each cycle (Total) (Count)
system.switch_cpus.fetch.nisnDist::8         12550627      4.39%    100.00% # Number of instructions fetched each cycle (Total) (Count)
system.switch_cpus.fetch.nisnDist::overflows            0      0.00%    100.00% # Number of instructions fetched each cycle (Total) (Count)
system.switch_cpus.fetch.nisnDist::min_value            0                       # Number of instructions fetched each cycle (Total) (Count)
system.switch_cpus.fetch.nisnDist::max_value            8                       # Number of instructions fetched each cycle (Total) (Count)
system.switch_cpus.fetch.nisnDist::total    286116657                       # Number of instructions fetched each cycle (Total) (Count)
system.switch_cpus.fetch.branchRate          0.002213                       # Number of branch fetches per cycle (Ratio)
system.switch_cpus.fetch.rate                0.360151                       # Number of inst fetches per cycle ((Count/Cycle))
system.switch_cpus.iew.idleCycles                   0                       # Number of cycles IEW is idle (Cycle)
system.switch_cpus.iew.squashCycles             24574                       # Number of cycles IEW is squashing (Cycle)
system.switch_cpus.iew.blockCycles             341521                       # Number of cycles IEW is blocking (Cycle)
system.switch_cpus.iew.unblockCycles          1616280                       # Number of cycles IEW is unblocking (Cycle)
system.switch_cpus.iew.dispatchedInsts      142751209                       # Number of instructions dispatched to IQ (Count)
system.switch_cpus.iew.dispSquashedInsts          393                       # Number of squashed instructions skipped by dispatch (Count)
system.switch_cpus.iew.dispLoadInsts         38807214                       # Number of dispatched load instructions (Count)
system.switch_cpus.iew.dispStoreInsts        13790174                       # Number of dispatched store instructions (Count)
system.switch_cpus.iew.dispNonSpecInsts             0                       # Number of dispatched non-speculative instructions (Count)
system.switch_cpus.iew.iqFullEvents                 0                       # Number of times the IQ has become full, causing a stall (Count)
system.switch_cpus.iew.lsqFullEvents          1621019                       # Number of times the LSQ has become full, causing a stall (Count)
system.switch_cpus.iew.memOrderViolationEvents          594                       # Number of memory order violations (Count)
system.switch_cpus.iew.predictedTakenIncorrect           24                       # Number of branches that were predicted taken incorrectly (Count)
system.switch_cpus.iew.predictedNotTakenIncorrect           16                       # Number of branches that were predicted not taken incorrectly (Count)
system.switch_cpus.iew.branchMispredicts           40                       # Number of branch mispredicts detected at execute (Count)
system.switch_cpus.iew.instsToCommit        142744454                       # Cumulative count of insts sent to commit (Count)
system.switch_cpus.iew.writebackCount       142480251                       # Cumulative count of insts written-back (Count)
system.switch_cpus.iew.producerInst         110859076                       # Number of instructions producing a value (Count)
system.switch_cpus.iew.consumerInst         122175260                       # Number of instructions consuming a value (Count)
system.switch_cpus.iew.wbRate                0.497980                       # Insts written-back per cycle ((Count/Cycle))
system.switch_cpus.iew.wbFanout              0.907377                       # Average fanout of values written-back ((Count/Count))
system.switch_cpus.lsq0.forwLoads            14163691                       # Number of loads that had data forwarded from stores (Count)
system.switch_cpus.lsq0.squashedLoads          770398                       # Number of loads squashed (Count)
system.switch_cpus.lsq0.ignoredResponses           10                       # Number of memory responses ignored because the instruction is squashed (Count)
system.switch_cpus.lsq0.memOrderViolation          594                       # Number of memory ordering violations (Count)
system.switch_cpus.lsq0.squashedStores         293240                       # Number of stores squashed (Count)
system.switch_cpus.lsq0.rescheduledLoads            0                       # Number of loads that were rescheduled (Count)
system.switch_cpus.lsq0.blockedByCache              0                       # Number of times an access to memory failed due to the cache being blocked (Count)
system.switch_cpus.lsq0.loadToUse::samples     38036809                       # Distribution of cycle latency between the first time a load is issued and its completion (Unspecified)
system.switch_cpus.lsq0.loadToUse::mean      2.750508                       # Distribution of cycle latency between the first time a load is issued and its completion (Unspecified)
system.switch_cpus.lsq0.loadToUse::stdev     0.646218                       # Distribution of cycle latency between the first time a load is issued and its completion (Unspecified)
system.switch_cpus.lsq0.loadToUse::0-9       38036809    100.00%    100.00% # Distribution of cycle latency between the first time a load is issued and its completion (Unspecified)
system.switch_cpus.lsq0.loadToUse::min_value            2                       # Distribution of cycle latency between the first time a load is issued and its completion (Unspecified)
system.switch_cpus.lsq0.loadToUse::max_value            5                       # Distribution of cycle latency between the first time a load is issued and its completion (Unspecified)
system.switch_cpus.lsq0.loadToUse::total     38036809                       # Distribution of cycle latency between the first time a load is issued and its completion (Unspecified)
system.switch_cpus.mmu.dtb.rdAccesses        38805725                       # TLB accesses on read requests (Count)
system.switch_cpus.mmu.dtb.wrAccesses        13789390                       # TLB accesses on write requests (Count)
system.switch_cpus.mmu.dtb.rdMisses                 2                       # TLB misses on read requests (Count)
system.switch_cpus.mmu.dtb.wrMisses            287581                       # TLB misses on write requests (Count)
system.switch_cpus.mmu.dtb.walker.power_state.pwrStateResidencyTicks::UNDEFINED 234519019000                       # Cumulative time (in ticks) in various power states (Tick)
system.switch_cpus.mmu.itb.rdAccesses               0                       # TLB accesses on read requests (Count)
system.switch_cpus.mmu.itb.wrAccesses         8246419                       # TLB accesses on write requests (Count)
system.switch_cpus.mmu.itb.rdMisses                 0                       # TLB misses on read requests (Count)
system.switch_cpus.mmu.itb.wrMisses                 2                       # TLB misses on write requests (Count)
system.switch_cpus.mmu.itb.walker.power_state.pwrStateResidencyTicks::UNDEFINED 234519019000                       # Cumulative time (in ticks) in various power states (Tick)
system.switch_cpus.power_state.pwrStateResidencyTicks::OFF 234519019000                       # Cumulative time (in ticks) in various power states (Tick)
system.switch_cpus.rename.squashCycles          24574                       # Number of cycles rename is squashing (Cycle)
system.switch_cpus.rename.idleCycles          7494041                       # Number of cycles rename is idle (Cycle)
system.switch_cpus.rename.blockCycles         1996127                       # Number of cycles rename is blocking (Cycle)
system.switch_cpus.rename.serializeStallCycles            0                       # count of cycles rename stalled for serializing inst (Cycle)
system.switch_cpus.rename.runCycles          14655811                       # Number of cycles rename is running (Cycle)
system.switch_cpus.rename.unblockCycles     261946081                       # Number of cycles rename is unblocking (Cycle)
system.switch_cpus.rename.renamedInsts      142779398                       # Number of instructions processed by rename (Count)
system.switch_cpus.rename.LQFullEvents        6828705                       # Number of times rename has blocked due to LQ full (Count)
system.switch_cpus.rename.SQFullEvents      252031418                       # Number of times rename has blocked due to SQ full (Count)
system.switch_cpus.rename.renamedOperands    179708344                       # Number of destination operands rename has renamed (Count)
system.switch_cpus.rename.lookups           290597167                       # Number of register rename lookups that rename has made (Count)
system.switch_cpus.rename.intLookups        209797548                       # Number of integer rename lookups (Count)
system.switch_cpus.rename.fpLookups          11906790                       # Number of floating rename lookups (Count)
system.switch_cpus.rename.committedMaps     176073617                       # Number of HB maps that are committed (Count)
system.switch_cpus.rename.undoneMaps          3634686                       # Number of HB maps that are undone due to squashing (Count)
system.switch_cpus.rename.serializing               0                       # count of serializing insts renamed (Count)
system.switch_cpus.rename.tempSerializing            0                       # count of temporary serializing insts renamed (Count)
system.switch_cpus.rename.skidInsts          44922911                       # count of insts added to the skid buffer (Count)
system.switch_cpus.rob.reads                426126889                       # The number of ROB reads (Count)
system.switch_cpus.rob.writes               285916404                       # The number of ROB writes (Count)
system.switch_cpus.thread_0.numInsts        100000000                       # Number of Instructions committed (Count)
system.switch_cpus.thread_0.numOps          139877300                       # Number of Ops committed (Count)
system.switch_cpus.thread_0.numMemRefs              0                       # Number of Memory References (Count)
system.tol2bus.transDist::WritebackDirty      3067476                       # Transaction distribution (Count)
system.tol2bus.transDist::ReadExReq           1533738                       # Transaction distribution (Count)
system.tol2bus.transDist::ReadExResp          1533738                       # Transaction distribution (Count)
system.tol2bus.pktCount_system.cpu.dcache.mem_side_port::system.l2.cpu_side_port      4601214                       # Packet count per connected requestor and responder (Count)
system.tol2bus.pktCount::total                4601214                       # Packet count per connected requestor and responder (Count)
system.tol2bus.pktSize_system.cpu.dcache.mem_side_port::system.l2.cpu_side_port    196318464                       # Cumulative packet size per connected requestor and responder (Byte)
system.tol2bus.pktSize::total               196318464                       # Cumulative packet size per connected requestor and responder (Byte)
system.tol2bus.snoops                         1533738                       # Total snoops (Count)
system.tol2bus.snoopTraffic                  98159232                       # Total snoop traffic (Byte)
system.tol2bus.snoopFanout::samples           3067476                       # Request fanout histogram (Count)
system.tol2bus.snoopFanout::mean                    0                       # Request fanout histogram (Count)
system.tol2bus.snoopFanout::stdev                   0                       # Request fanout histogram (Count)
system.tol2bus.snoopFanout::underflows              0      0.00%      0.00% # Request fanout histogram (Count)
system.tol2bus.snoopFanout::0                 3067476    100.00%    100.00% # Request fanout histogram (Count)
system.tol2bus.snoopFanout::1                       0      0.00%    100.00% # Request fanout histogram (Count)
system.tol2bus.snoopFanout::2                       0      0.00%    100.00% # Request fanout histogram (Count)
system.tol2bus.snoopFanout::3                       0      0.00%    100.00% # Request fanout histogram (Count)
system.tol2bus.snoopFanout::4                       0      0.00%    100.00% # Request fanout histogram (Count)
system.tol2bus.snoopFanout::overflows               0      0.00%    100.00% # Request fanout histogram (Count)
system.tol2bus.snoopFanout::min_value               0                       # Request fanout histogram (Count)
system.tol2bus.snoopFanout::max_value               0                       # Request fanout histogram (Count)
system.tol2bus.snoopFanout::total             3067476                       # Request fanout histogram (Count)
system.tol2bus.power_state.pwrStateResidencyTicks::UNDEFINED 234519019000                       # Cumulative time (in ticks) in various power states (Tick)
system.tol2bus.reqLayer0.occupancy         3067476000                       # Layer occupancy (ticks) (Tick)
system.tol2bus.reqLayer0.utilization              0.0                       # Layer utilization (Ratio)
system.tol2bus.respLayer1.occupancy        2300607000                       # Layer occupancy (ticks) (Tick)
system.tol2bus.respLayer1.utilization             0.0                       # Layer utilization (Ratio)
system.tol2bus.snoop_filter.totRequests       3067476                       # Total number of requests made to the snoop filter. (Count)
system.tol2bus.snoop_filter.hitSingleRequests      1533738                       # Number of requests hitting in the snoop filter with a single holder of the requested data. (Count)
system.tol2bus.snoop_filter.hitMultiRequests            0                       # Number of requests hitting in the snoop filter with multiple (>1) holders of the requested data. (Count)
system.tol2bus.snoop_filter.totSnoops               0                       # Total number of snoops made to the snoop filter. (Count)
system.tol2bus.snoop_filter.hitSingleSnoops            0                       # Number of snoops hitting in the snoop filter with a single holder of the requested data. (Count)
system.tol2bus.snoop_filter.hitMultiSnoops            0                       # Number of snoops hitting in the snoop filter with multiple (>1) holders of the requested data. (Count)
system.voltage_domain.voltage                       1                       # Voltage in Volts (Volt)
system.workload.inst.arm                            0                       # number of arm instructions executed (Count)
system.workload.inst.quiesce                        0                       # number of quiesce instructions executed (Count)

---------- End Simulation Statistics   ----------
